
---------- Begin Simulation Statistics ----------
simSeconds                                   0.391202                       # Number of seconds simulated (Second)
simTicks                                 391201542500                       # Number of ticks simulated (Tick)
finalTick                                391201542500                       # Number of ticks from beginning of simulation (restored from checkpoints and never reset) (Tick)
simFreq                                  1000000000000                       # The number of ticks per simulated second ((Tick/Second))
hostSeconds                                     10.77                       # Real time elapsed on the host (Second)
hostTickRate                              36321457836                       # The number of ticks simulated per host second (ticks/s) ((Tick/Second))
hostMemory                                     672856                       # Number of bytes of host memory used (Byte)
simInsts                                       204932                       # Number of instructions simulated (Count)
simOps                                         378408                       # Number of ops (including micro ops) simulated (Count)
hostInstRate                                    19027                       # Simulator instruction rate (inst/s) ((Count/Second))
hostOpRate                                      35133                       # Simulator op (including micro ops) rate (op/s) ((Count/Second))
system.clk_domain.clock                          1000                       # Clock period in ticks (Tick)
system.cpu.numCycles                           460102                       # Number of cpu cycles simulated (Cycle)
system.cpu.numWorkItemsStarted                      0                       # Number of work items this cpu started (Count)
system.cpu.numWorkItemsCompleted                    0                       # Number of work items this cpu completed (Count)
system.cpu.instsAdded                          617259                       # Number of instructions added to the IQ (excludes non-spec) (Count)
system.cpu.nonSpecInstsAdded                       47                       # Number of non-speculative instructions added to the IQ (Count)
system.cpu.instsIssued                         550393                       # Number of instructions issued (Count)
system.cpu.squashedInstsIssued                   1558                       # Number of squashed instructions issued (Count)
system.cpu.squashedInstsExamined               238859                       # Number of squashed instructions iterated over during squash; mainly for profiling (Count)
system.cpu.squashedOperandsExamined            295988                       # Number of squashed operands that are examined and possibly removed from graph (Count)
system.cpu.squashedNonSpecRemoved                   2                       # Number of squashed non-spec instructions that were removed (Count)
system.cpu.numIssuedDist::samples              367987                       # Number of insts issued each cycle (Count)
system.cpu.numIssuedDist::mean               1.495686                       # Number of insts issued each cycle (Count)
system.cpu.numIssuedDist::stdev              2.238294                       # Number of insts issued each cycle (Count)
system.cpu.numIssuedDist::underflows                0      0.00%      0.00% # Number of insts issued each cycle (Count)
system.cpu.numIssuedDist::0                    219730     59.71%     59.71% # Number of insts issued each cycle (Count)
system.cpu.numIssuedDist::1                     26463      7.19%     66.90% # Number of insts issued each cycle (Count)
system.cpu.numIssuedDist::2                     26458      7.19%     74.09% # Number of insts issued each cycle (Count)
system.cpu.numIssuedDist::3                     20410      5.55%     79.64% # Number of insts issued each cycle (Count)
system.cpu.numIssuedDist::4                     20225      5.50%     85.14% # Number of insts issued each cycle (Count)
system.cpu.numIssuedDist::5                     18973      5.16%     90.29% # Number of insts issued each cycle (Count)
system.cpu.numIssuedDist::6                     21692      5.89%     96.19% # Number of insts issued each cycle (Count)
system.cpu.numIssuedDist::7                      8421      2.29%     98.47% # Number of insts issued each cycle (Count)
system.cpu.numIssuedDist::8                      5615      1.53%    100.00% # Number of insts issued each cycle (Count)
system.cpu.numIssuedDist::overflows                 0      0.00%    100.00% # Number of insts issued each cycle (Count)
system.cpu.numIssuedDist::min_value                 0                       # Number of insts issued each cycle (Count)
system.cpu.numIssuedDist::max_value                 8                       # Number of insts issued each cycle (Count)
system.cpu.numIssuedDist::total                367987                       # Number of insts issued each cycle (Count)
system.cpu.statFuBusy::No_OpClass                   0      0.00%      0.00% # attempts to use FU when none available (Count)
system.cpu.statFuBusy::IntAlu                   10105     88.42%     88.42% # attempts to use FU when none available (Count)
system.cpu.statFuBusy::IntMult                      0      0.00%     88.42% # attempts to use FU when none available (Count)
system.cpu.statFuBusy::IntDiv                       0      0.00%     88.42% # attempts to use FU when none available (Count)
system.cpu.statFuBusy::FloatAdd                     0      0.00%     88.42% # attempts to use FU when none available (Count)
system.cpu.statFuBusy::FloatCmp                     0      0.00%     88.42% # attempts to use FU when none available (Count)
system.cpu.statFuBusy::FloatCvt                     0      0.00%     88.42% # attempts to use FU when none available (Count)
system.cpu.statFuBusy::FloatMult                    0      0.00%     88.42% # attempts to use FU when none available (Count)
system.cpu.statFuBusy::FloatMultAcc                 0      0.00%     88.42% # attempts to use FU when none available (Count)
system.cpu.statFuBusy::FloatDiv                     0      0.00%     88.42% # attempts to use FU when none available (Count)
system.cpu.statFuBusy::FloatMisc                    0      0.00%     88.42% # attempts to use FU when none available (Count)
system.cpu.statFuBusy::FloatSqrt                    0      0.00%     88.42% # attempts to use FU when none available (Count)
system.cpu.statFuBusy::SimdAdd                      1      0.01%     88.43% # attempts to use FU when none available (Count)
system.cpu.statFuBusy::SimdAddAcc                   0      0.00%     88.43% # attempts to use FU when none available (Count)
system.cpu.statFuBusy::SimdAlu                     22      0.19%     88.62% # attempts to use FU when none available (Count)
system.cpu.statFuBusy::SimdCmp                      0      0.00%     88.62% # attempts to use FU when none available (Count)
system.cpu.statFuBusy::SimdCvt                     21      0.18%     88.81% # attempts to use FU when none available (Count)
system.cpu.statFuBusy::SimdMisc                     3      0.03%     88.83% # attempts to use FU when none available (Count)
system.cpu.statFuBusy::SimdMult                     0      0.00%     88.83% # attempts to use FU when none available (Count)
system.cpu.statFuBusy::SimdMultAcc                  0      0.00%     88.83% # attempts to use FU when none available (Count)
system.cpu.statFuBusy::SimdShift                    2      0.02%     88.85% # attempts to use FU when none available (Count)
system.cpu.statFuBusy::SimdShiftAcc                 0      0.00%     88.85% # attempts to use FU when none available (Count)
system.cpu.statFuBusy::SimdDiv                      0      0.00%     88.85% # attempts to use FU when none available (Count)
system.cpu.statFuBusy::SimdSqrt                     0      0.00%     88.85% # attempts to use FU when none available (Count)
system.cpu.statFuBusy::SimdFloatAdd                 0      0.00%     88.85% # attempts to use FU when none available (Count)
system.cpu.statFuBusy::SimdFloatAlu                 0      0.00%     88.85% # attempts to use FU when none available (Count)
system.cpu.statFuBusy::SimdFloatCmp                 0      0.00%     88.85% # attempts to use FU when none available (Count)
system.cpu.statFuBusy::SimdFloatCvt                 0      0.00%     88.85% # attempts to use FU when none available (Count)
system.cpu.statFuBusy::SimdFloatDiv                 0      0.00%     88.85% # attempts to use FU when none available (Count)
system.cpu.statFuBusy::SimdFloatMisc                0      0.00%     88.85% # attempts to use FU when none available (Count)
system.cpu.statFuBusy::SimdFloatMult                0      0.00%     88.85% # attempts to use FU when none available (Count)
system.cpu.statFuBusy::SimdFloatMultAcc             0      0.00%     88.85% # attempts to use FU when none available (Count)
system.cpu.statFuBusy::SimdFloatSqrt                0      0.00%     88.85% # attempts to use FU when none available (Count)
system.cpu.statFuBusy::SimdReduceAdd                0      0.00%     88.85% # attempts to use FU when none available (Count)
system.cpu.statFuBusy::SimdReduceAlu                0      0.00%     88.85% # attempts to use FU when none available (Count)
system.cpu.statFuBusy::SimdReduceCmp                0      0.00%     88.85% # attempts to use FU when none available (Count)
system.cpu.statFuBusy::SimdFloatReduceAdd            0      0.00%     88.85% # attempts to use FU when none available (Count)
system.cpu.statFuBusy::SimdFloatReduceCmp            0      0.00%     88.85% # attempts to use FU when none available (Count)
system.cpu.statFuBusy::SimdAes                      0      0.00%     88.85% # attempts to use FU when none available (Count)
system.cpu.statFuBusy::SimdAesMix                   0      0.00%     88.85% # attempts to use FU when none available (Count)
system.cpu.statFuBusy::SimdSha1Hash                 0      0.00%     88.85% # attempts to use FU when none available (Count)
system.cpu.statFuBusy::SimdSha1Hash2                0      0.00%     88.85% # attempts to use FU when none available (Count)
system.cpu.statFuBusy::SimdSha256Hash               0      0.00%     88.85% # attempts to use FU when none available (Count)
system.cpu.statFuBusy::SimdSha256Hash2              0      0.00%     88.85% # attempts to use FU when none available (Count)
system.cpu.statFuBusy::SimdShaSigma2                0      0.00%     88.85% # attempts to use FU when none available (Count)
system.cpu.statFuBusy::SimdShaSigma3                0      0.00%     88.85% # attempts to use FU when none available (Count)
system.cpu.statFuBusy::SimdPredAlu                  0      0.00%     88.85% # attempts to use FU when none available (Count)
system.cpu.statFuBusy::MemRead                    652      5.71%     94.56% # attempts to use FU when none available (Count)
system.cpu.statFuBusy::MemWrite                   418      3.66%     98.21% # attempts to use FU when none available (Count)
system.cpu.statFuBusy::FloatMemRead                34      0.30%     98.51% # attempts to use FU when none available (Count)
system.cpu.statFuBusy::FloatMemWrite              170      1.49%    100.00% # attempts to use FU when none available (Count)
system.cpu.statFuBusy::IprAccess                    0      0.00%    100.00% # attempts to use FU when none available (Count)
system.cpu.statFuBusy::InstPrefetch                 0      0.00%    100.00% # attempts to use FU when none available (Count)
system.cpu.statIssuedInstType_0::No_OpClass         4705      0.85%      0.85% # Number of instructions issued per FU type, per thread (Count)
system.cpu.statIssuedInstType_0::IntAlu        440505     80.03%     80.89% # Number of instructions issued per FU type, per thread (Count)
system.cpu.statIssuedInstType_0::IntMult          359      0.07%     80.95% # Number of instructions issued per FU type, per thread (Count)
system.cpu.statIssuedInstType_0::IntDiv          1419      0.26%     81.21% # Number of instructions issued per FU type, per thread (Count)
system.cpu.statIssuedInstType_0::FloatAdd          784      0.14%     81.35% # Number of instructions issued per FU type, per thread (Count)
system.cpu.statIssuedInstType_0::FloatCmp            0      0.00%     81.35% # Number of instructions issued per FU type, per thread (Count)
system.cpu.statIssuedInstType_0::FloatCvt           80      0.01%     81.37% # Number of instructions issued per FU type, per thread (Count)
system.cpu.statIssuedInstType_0::FloatMult            0      0.00%     81.37% # Number of instructions issued per FU type, per thread (Count)
system.cpu.statIssuedInstType_0::FloatMultAcc            0      0.00%     81.37% # Number of instructions issued per FU type, per thread (Count)
system.cpu.statIssuedInstType_0::FloatDiv            0      0.00%     81.37% # Number of instructions issued per FU type, per thread (Count)
system.cpu.statIssuedInstType_0::FloatMisc            0      0.00%     81.37% # Number of instructions issued per FU type, per thread (Count)
system.cpu.statIssuedInstType_0::FloatSqrt            0      0.00%     81.37% # Number of instructions issued per FU type, per thread (Count)
system.cpu.statIssuedInstType_0::SimdAdd          452      0.08%     81.45% # Number of instructions issued per FU type, per thread (Count)
system.cpu.statIssuedInstType_0::SimdAddAcc            0      0.00%     81.45% # Number of instructions issued per FU type, per thread (Count)
system.cpu.statIssuedInstType_0::SimdAlu         1649      0.30%     81.75% # Number of instructions issued per FU type, per thread (Count)
system.cpu.statIssuedInstType_0::SimdCmp            0      0.00%     81.75% # Number of instructions issued per FU type, per thread (Count)
system.cpu.statIssuedInstType_0::SimdCvt         1398      0.25%     82.01% # Number of instructions issued per FU type, per thread (Count)
system.cpu.statIssuedInstType_0::SimdMisc         1615      0.29%     82.30% # Number of instructions issued per FU type, per thread (Count)
system.cpu.statIssuedInstType_0::SimdMult            0      0.00%     82.30% # Number of instructions issued per FU type, per thread (Count)
system.cpu.statIssuedInstType_0::SimdMultAcc            0      0.00%     82.30% # Number of instructions issued per FU type, per thread (Count)
system.cpu.statIssuedInstType_0::SimdShift          360      0.07%     82.36% # Number of instructions issued per FU type, per thread (Count)
system.cpu.statIssuedInstType_0::SimdShiftAcc            0      0.00%     82.36% # Number of instructions issued per FU type, per thread (Count)
system.cpu.statIssuedInstType_0::SimdDiv            0      0.00%     82.36% # Number of instructions issued per FU type, per thread (Count)
system.cpu.statIssuedInstType_0::SimdSqrt            0      0.00%     82.36% # Number of instructions issued per FU type, per thread (Count)
system.cpu.statIssuedInstType_0::SimdFloatAdd            0      0.00%     82.36% # Number of instructions issued per FU type, per thread (Count)
system.cpu.statIssuedInstType_0::SimdFloatAlu            0      0.00%     82.36% # Number of instructions issued per FU type, per thread (Count)
system.cpu.statIssuedInstType_0::SimdFloatCmp            0      0.00%     82.36% # Number of instructions issued per FU type, per thread (Count)
system.cpu.statIssuedInstType_0::SimdFloatCvt            0      0.00%     82.36% # Number of instructions issued per FU type, per thread (Count)
system.cpu.statIssuedInstType_0::SimdFloatDiv            0      0.00%     82.36% # Number of instructions issued per FU type, per thread (Count)
system.cpu.statIssuedInstType_0::SimdFloatMisc            0      0.00%     82.36% # Number of instructions issued per FU type, per thread (Count)
system.cpu.statIssuedInstType_0::SimdFloatMult            0      0.00%     82.36% # Number of instructions issued per FU type, per thread (Count)
system.cpu.statIssuedInstType_0::SimdFloatMultAcc            0      0.00%     82.36% # Number of instructions issued per FU type, per thread (Count)
system.cpu.statIssuedInstType_0::SimdFloatSqrt            0      0.00%     82.36% # Number of instructions issued per FU type, per thread (Count)
system.cpu.statIssuedInstType_0::SimdReduceAdd            0      0.00%     82.36% # Number of instructions issued per FU type, per thread (Count)
system.cpu.statIssuedInstType_0::SimdReduceAlu            0      0.00%     82.36% # Number of instructions issued per FU type, per thread (Count)
system.cpu.statIssuedInstType_0::SimdReduceCmp            0      0.00%     82.36% # Number of instructions issued per FU type, per thread (Count)
system.cpu.statIssuedInstType_0::SimdFloatReduceAdd            0      0.00%     82.36% # Number of instructions issued per FU type, per thread (Count)
system.cpu.statIssuedInstType_0::SimdFloatReduceCmp            0      0.00%     82.36% # Number of instructions issued per FU type, per thread (Count)
system.cpu.statIssuedInstType_0::SimdAes            0      0.00%     82.36% # Number of instructions issued per FU type, per thread (Count)
system.cpu.statIssuedInstType_0::SimdAesMix            0      0.00%     82.36% # Number of instructions issued per FU type, per thread (Count)
system.cpu.statIssuedInstType_0::SimdSha1Hash            0      0.00%     82.36% # Number of instructions issued per FU type, per thread (Count)
system.cpu.statIssuedInstType_0::SimdSha1Hash2            0      0.00%     82.36% # Number of instructions issued per FU type, per thread (Count)
system.cpu.statIssuedInstType_0::SimdSha256Hash            0      0.00%     82.36% # Number of instructions issued per FU type, per thread (Count)
system.cpu.statIssuedInstType_0::SimdSha256Hash2            0      0.00%     82.36% # Number of instructions issued per FU type, per thread (Count)
system.cpu.statIssuedInstType_0::SimdShaSigma2            0      0.00%     82.36% # Number of instructions issued per FU type, per thread (Count)
system.cpu.statIssuedInstType_0::SimdShaSigma3            0      0.00%     82.36% # Number of instructions issued per FU type, per thread (Count)
system.cpu.statIssuedInstType_0::SimdPredAlu            0      0.00%     82.36% # Number of instructions issued per FU type, per thread (Count)
system.cpu.statIssuedInstType_0::MemRead        70370     12.79%     95.15% # Number of instructions issued per FU type, per thread (Count)
system.cpu.statIssuedInstType_0::MemWrite        21923      3.98%     99.13% # Number of instructions issued per FU type, per thread (Count)
system.cpu.statIssuedInstType_0::FloatMemRead         2525      0.46%     99.59% # Number of instructions issued per FU type, per thread (Count)
system.cpu.statIssuedInstType_0::FloatMemWrite         2249      0.41%    100.00% # Number of instructions issued per FU type, per thread (Count)
system.cpu.statIssuedInstType_0::IprAccess            0      0.00%    100.00% # Number of instructions issued per FU type, per thread (Count)
system.cpu.statIssuedInstType_0::InstPrefetch            0      0.00%    100.00% # Number of instructions issued per FU type, per thread (Count)
system.cpu.statIssuedInstType_0::total         550393                       # Number of instructions issued per FU type, per thread (Count)
system.cpu.issueRate                         1.196241                       # Inst issue rate ((Count/Cycle))
system.cpu.fuBusy                               11428                       # FU busy when requested (Count)
system.cpu.fuBusyRate                        0.020763                       # FU busy rate (busy events/executed inst) ((Count/Count))
system.cpu.intInstQueueReads                  1457925                       # Number of integer instruction queue reads (Count)
system.cpu.intInstQueueWrites                  835105                       # Number of integer instruction queue writes (Count)
system.cpu.intInstQueueWakeupAccesses          519671                       # Number of integer instruction queue wakeup accesses (Count)
system.cpu.fpInstQueueReads                     23833                       # Number of floating instruction queue reads (Count)
system.cpu.fpInstQueueWrites                    21157                       # Number of floating instruction queue writes (Count)
system.cpu.fpInstQueueWakeupAccesses            10736                       # Number of floating instruction queue wakeup accesses (Count)
system.cpu.vecInstQueueReads                        0                       # Number of vector instruction queue reads (Count)
system.cpu.vecInstQueueWrites                       0                       # Number of vector instruction queue writes (Count)
system.cpu.vecInstQueueWakeupAccesses               0                       # Number of vector instruction queue wakeup accesses (Count)
system.cpu.intAluAccesses                      545172                       # Number of integer alu accesses (Count)
system.cpu.fpAluAccesses                        11944                       # Number of floating point alu accesses (Count)
system.cpu.vecAluAccesses                           0                       # Number of vector alu accesses (Count)
system.cpu.numInsts                            538334                       # Number of executed instructions (Count)
system.cpu.numLoadInsts                         69327                       # Number of load instructions executed (Count)
system.cpu.numSquashedInsts                     12058                       # Number of squashed instructions skipped in execute (Count)
system.cpu.numSwp                                   0                       # Number of swp insts executed (Count)
system.cpu.numNop                                   0                       # Number of nop insts executed (Count)
system.cpu.numRefs                              92766                       # Number of memory reference insts executed (Count)
system.cpu.numBranches                          58301                       # Number of branches executed (Count)
system.cpu.numStoreInsts                        23439                       # Number of stores executed (Count)
system.cpu.numRate                           1.170032                       # Inst execution rate ((Count/Cycle))
system.cpu.timesIdled                            1214                       # Number of times that the entire CPU went into an idle state and unscheduled itself (Count)
system.cpu.idleCycles                           92115                       # Total number of cycles that the CPU has spent unscheduled due to idling (Cycle)
system.cpu.quiesceCycles                    781942984                       # Total number of cycles that CPU has spent quiesced or waiting for an interrupt (Cycle)
system.cpu.committedInsts                      204932                       # Number of Instructions Simulated (Count)
system.cpu.committedOps                        378408                       # Number of Ops (including micro ops) Simulated (Count)
system.cpu.cpi                               2.245145                       # CPI: Cycles Per Instruction ((Cycle/Count))
system.cpu.totalCpi                          2.245145                       # CPI: Total CPI of All Threads ((Cycle/Count))
system.cpu.ipc                               0.445406                       # IPC: Instructions Per Cycle ((Count/Cycle))
system.cpu.totalIpc                          0.445406                       # IPC: Total IPC of All Threads ((Count/Cycle))
system.cpu.intRegfileReads                     770798                       # Number of integer regfile reads (Count)
system.cpu.intRegfileWrites                    441071                       # Number of integer regfile writes (Count)
system.cpu.fpRegfileReads                       15064                       # Number of floating regfile reads (Count)
system.cpu.fpRegfileWrites                       8042                       # Number of floating regfile writes (Count)
system.cpu.ccRegfileReads                      284363                       # number of cc regfile reads (Count)
system.cpu.ccRegfileWrites                     189875                       # number of cc regfile writes (Count)
system.cpu.miscRegfileReads                    222004                       # number of misc regfile reads (Count)
system.cpu.miscRegfileWrites                       45                       # number of misc regfile writes (Count)
system.cpu.MemDepUnit__0.insertedLoads          77806                       # Number of loads inserted to the mem dependence unit. (Count)
system.cpu.MemDepUnit__0.insertedStores         27214                       # Number of stores inserted to the mem dependence unit. (Count)
system.cpu.MemDepUnit__0.conflictingLoads         1240                       # Number of conflicting loads. (Count)
system.cpu.MemDepUnit__0.conflictingStores          749                       # Number of conflicting stores. (Count)
system.cpu.MemDepUnit__1.insertedLoads              0                       # Number of loads inserted to the mem dependence unit. (Count)
system.cpu.MemDepUnit__1.insertedStores             0                       # Number of stores inserted to the mem dependence unit. (Count)
system.cpu.MemDepUnit__1.conflictingLoads            0                       # Number of conflicting loads. (Count)
system.cpu.MemDepUnit__1.conflictingStores            0                       # Number of conflicting stores. (Count)
system.cpu.MemDepUnit__2.insertedLoads              0                       # Number of loads inserted to the mem dependence unit. (Count)
system.cpu.MemDepUnit__2.insertedStores             0                       # Number of stores inserted to the mem dependence unit. (Count)
system.cpu.MemDepUnit__2.conflictingLoads            0                       # Number of conflicting loads. (Count)
system.cpu.MemDepUnit__2.conflictingStores            0                       # Number of conflicting stores. (Count)
system.cpu.MemDepUnit__3.insertedLoads              0                       # Number of loads inserted to the mem dependence unit. (Count)
system.cpu.MemDepUnit__3.insertedStores             0                       # Number of stores inserted to the mem dependence unit. (Count)
system.cpu.MemDepUnit__3.conflictingLoads            0                       # Number of conflicting loads. (Count)
system.cpu.MemDepUnit__3.conflictingStores            0                       # Number of conflicting stores. (Count)
system.cpu.branchPred.lookups                   87774                       # Number of BP lookups (Count)
system.cpu.branchPred.condPredicted             69899                       # Number of conditional branches predicted (Count)
system.cpu.branchPred.condIncorrect              6155                       # Number of conditional branches incorrect (Count)
system.cpu.branchPred.BTBLookups                29604                       # Number of BTB lookups (Count)
system.cpu.branchPred.BTBHits                   28661                       # Number of BTB hits (Count)
system.cpu.branchPred.BTBHitRatio            0.968146                       # BTB Hit Ratio (Ratio)
system.cpu.branchPred.RASUsed                    2334                       # Number of times the RAS was used to get a target. (Count)
system.cpu.branchPred.RASIncorrect                  3                       # Number of incorrect RAS predictions. (Count)
system.cpu.branchPred.indirectLookups            2309                       # Number of indirect predictor lookups. (Count)
system.cpu.branchPred.indirectHits                629                       # Number of indirect target hits. (Count)
system.cpu.branchPred.indirectMisses             1680                       # Number of indirect misses. (Count)
system.cpu.branchPred.indirectMispredicted          326                       # Number of mispredicted indirect branches. (Count)
system.cpu.commit.commitSquashedInsts          237137                       # The number of squashed insts skipped by commit (Count)
system.cpu.commit.commitNonSpecStalls              45                       # The number of times commit has been forced to stall to communicate backwards (Count)
system.cpu.commit.branchMispredicts              5830                       # The number of times a branch was mispredicted (Count)
system.cpu.commit.numCommittedDist::samples       332904                       # Number of insts commited each cycle (Count)
system.cpu.commit.numCommittedDist::mean     1.136688                       # Number of insts commited each cycle (Count)
system.cpu.commit.numCommittedDist::stdev     2.318393                       # Number of insts commited each cycle (Count)
system.cpu.commit.numCommittedDist::underflows            0      0.00%      0.00% # Number of insts commited each cycle (Count)
system.cpu.commit.numCommittedDist::0          235020     70.60%     70.60% # Number of insts commited each cycle (Count)
system.cpu.commit.numCommittedDist::1           29143      8.75%     79.35% # Number of insts commited each cycle (Count)
system.cpu.commit.numCommittedDist::2           11419      3.43%     82.78% # Number of insts commited each cycle (Count)
system.cpu.commit.numCommittedDist::3           18297      5.50%     88.28% # Number of insts commited each cycle (Count)
system.cpu.commit.numCommittedDist::4            5555      1.67%     89.95% # Number of insts commited each cycle (Count)
system.cpu.commit.numCommittedDist::5            3311      0.99%     90.94% # Number of insts commited each cycle (Count)
system.cpu.commit.numCommittedDist::6            2905      0.87%     91.81% # Number of insts commited each cycle (Count)
system.cpu.commit.numCommittedDist::7            2701      0.81%     92.62% # Number of insts commited each cycle (Count)
system.cpu.commit.numCommittedDist::8           24553      7.38%    100.00% # Number of insts commited each cycle (Count)
system.cpu.commit.numCommittedDist::overflows            0      0.00%    100.00% # Number of insts commited each cycle (Count)
system.cpu.commit.numCommittedDist::min_value            0                       # Number of insts commited each cycle (Count)
system.cpu.commit.numCommittedDist::max_value            8                       # Number of insts commited each cycle (Count)
system.cpu.commit.numCommittedDist::total       332904                       # Number of insts commited each cycle (Count)
system.cpu.commit.instsCommitted               204932                       # Number of instructions committed (Count)
system.cpu.commit.opsCommitted                 378408                       # Number of ops (including micro ops) committed (Count)
system.cpu.commit.memRefs                       66513                       # Number of memory references committed (Count)
system.cpu.commit.loads                         48035                       # Number of loads committed (Count)
system.cpu.commit.amos                              0                       # Number of atomic instructions committed (Count)
system.cpu.commit.membars                           0                       # Number of memory barriers committed (Count)
system.cpu.commit.branches                      45256                       # Number of branches committed (Count)
system.cpu.commit.vectorInstructions                0                       # Number of committed Vector instructions. (Count)
system.cpu.commit.floating                       7701                       # Number of committed floating point instructions. (Count)
system.cpu.commit.integer                      371586                       # Number of committed integer instructions. (Count)
system.cpu.commit.functionCalls                  1310                       # Number of function calls committed. (Count)
system.cpu.commit.committedInstType_0::No_OpClass         1965      0.52%      0.52% # Class of committed instruction (Count)
system.cpu.commit.committedInstType_0::IntAlu       303953     80.32%     80.84% # Class of committed instruction (Count)
system.cpu.commit.committedInstType_0::IntMult          322      0.09%     80.93% # Class of committed instruction (Count)
system.cpu.commit.committedInstType_0::IntDiv         1315      0.35%     81.28% # Class of committed instruction (Count)
system.cpu.commit.committedInstType_0::FloatAdd          498      0.13%     81.41% # Class of committed instruction (Count)
system.cpu.commit.committedInstType_0::FloatCmp            0      0.00%     81.41% # Class of committed instruction (Count)
system.cpu.commit.committedInstType_0::FloatCvt           80      0.02%     81.43% # Class of committed instruction (Count)
system.cpu.commit.committedInstType_0::FloatMult            0      0.00%     81.43% # Class of committed instruction (Count)
system.cpu.commit.committedInstType_0::FloatMultAcc            0      0.00%     81.43% # Class of committed instruction (Count)
system.cpu.commit.committedInstType_0::FloatDiv            0      0.00%     81.43% # Class of committed instruction (Count)
system.cpu.commit.committedInstType_0::FloatMisc            0      0.00%     81.43% # Class of committed instruction (Count)
system.cpu.commit.committedInstType_0::FloatSqrt            0      0.00%     81.43% # Class of committed instruction (Count)
system.cpu.commit.committedInstType_0::SimdAdd          314      0.08%     81.51% # Class of committed instruction (Count)
system.cpu.commit.committedInstType_0::SimdAddAcc            0      0.00%     81.51% # Class of committed instruction (Count)
system.cpu.commit.committedInstType_0::SimdAlu          928      0.25%     81.76% # Class of committed instruction (Count)
system.cpu.commit.committedInstType_0::SimdCmp            0      0.00%     81.76% # Class of committed instruction (Count)
system.cpu.commit.committedInstType_0::SimdCvt          978      0.26%     82.02% # Class of committed instruction (Count)
system.cpu.commit.committedInstType_0::SimdMisc         1446      0.38%     82.40% # Class of committed instruction (Count)
system.cpu.commit.committedInstType_0::SimdMult            0      0.00%     82.40% # Class of committed instruction (Count)
system.cpu.commit.committedInstType_0::SimdMultAcc            0      0.00%     82.40% # Class of committed instruction (Count)
system.cpu.commit.committedInstType_0::SimdShift           96      0.03%     82.42% # Class of committed instruction (Count)
system.cpu.commit.committedInstType_0::SimdShiftAcc            0      0.00%     82.42% # Class of committed instruction (Count)
system.cpu.commit.committedInstType_0::SimdDiv            0      0.00%     82.42% # Class of committed instruction (Count)
system.cpu.commit.committedInstType_0::SimdSqrt            0      0.00%     82.42% # Class of committed instruction (Count)
system.cpu.commit.committedInstType_0::SimdFloatAdd            0      0.00%     82.42% # Class of committed instruction (Count)
system.cpu.commit.committedInstType_0::SimdFloatAlu            0      0.00%     82.42% # Class of committed instruction (Count)
system.cpu.commit.committedInstType_0::SimdFloatCmp            0      0.00%     82.42% # Class of committed instruction (Count)
system.cpu.commit.committedInstType_0::SimdFloatCvt            0      0.00%     82.42% # Class of committed instruction (Count)
system.cpu.commit.committedInstType_0::SimdFloatDiv            0      0.00%     82.42% # Class of committed instruction (Count)
system.cpu.commit.committedInstType_0::SimdFloatMisc            0      0.00%     82.42% # Class of committed instruction (Count)
system.cpu.commit.committedInstType_0::SimdFloatMult            0      0.00%     82.42% # Class of committed instruction (Count)
system.cpu.commit.committedInstType_0::SimdFloatMultAcc            0      0.00%     82.42% # Class of committed instruction (Count)
system.cpu.commit.committedInstType_0::SimdFloatSqrt            0      0.00%     82.42% # Class of committed instruction (Count)
system.cpu.commit.committedInstType_0::SimdReduceAdd            0      0.00%     82.42% # Class of committed instruction (Count)
system.cpu.commit.committedInstType_0::SimdReduceAlu            0      0.00%     82.42% # Class of committed instruction (Count)
system.cpu.commit.committedInstType_0::SimdReduceCmp            0      0.00%     82.42% # Class of committed instruction (Count)
system.cpu.commit.committedInstType_0::SimdFloatReduceAdd            0      0.00%     82.42% # Class of committed instruction (Count)
system.cpu.commit.committedInstType_0::SimdFloatReduceCmp            0      0.00%     82.42% # Class of committed instruction (Count)
system.cpu.commit.committedInstType_0::SimdAes            0      0.00%     82.42% # Class of committed instruction (Count)
system.cpu.commit.committedInstType_0::SimdAesMix            0      0.00%     82.42% # Class of committed instruction (Count)
system.cpu.commit.committedInstType_0::SimdSha1Hash            0      0.00%     82.42% # Class of committed instruction (Count)
system.cpu.commit.committedInstType_0::SimdSha1Hash2            0      0.00%     82.42% # Class of committed instruction (Count)
system.cpu.commit.committedInstType_0::SimdSha256Hash            0      0.00%     82.42% # Class of committed instruction (Count)
system.cpu.commit.committedInstType_0::SimdSha256Hash2            0      0.00%     82.42% # Class of committed instruction (Count)
system.cpu.commit.committedInstType_0::SimdShaSigma2            0      0.00%     82.42% # Class of committed instruction (Count)
system.cpu.commit.committedInstType_0::SimdShaSigma3            0      0.00%     82.42% # Class of committed instruction (Count)
system.cpu.commit.committedInstType_0::SimdPredAlu            0      0.00%     82.42% # Class of committed instruction (Count)
system.cpu.commit.committedInstType_0::MemRead        46833     12.38%     94.80% # Class of committed instruction (Count)
system.cpu.commit.committedInstType_0::MemWrite        16845      4.45%     99.25% # Class of committed instruction (Count)
system.cpu.commit.committedInstType_0::FloatMemRead         1202      0.32%     99.57% # Class of committed instruction (Count)
system.cpu.commit.committedInstType_0::FloatMemWrite         1633      0.43%    100.00% # Class of committed instruction (Count)
system.cpu.commit.committedInstType_0::IprAccess            0      0.00%    100.00% # Class of committed instruction (Count)
system.cpu.commit.committedInstType_0::InstPrefetch            0      0.00%    100.00% # Class of committed instruction (Count)
system.cpu.commit.committedInstType_0::total       378408                       # Class of committed instruction (Count)
system.cpu.commit.commitEligibleSamples         24553                       # number cycles where commit BW limit reached (Cycle)
system.cpu.dcache.demandHits::cpu.data          70794                       # number of demand (read+write) hits (Count)
system.cpu.dcache.demandHits::total             70794                       # number of demand (read+write) hits (Count)
system.cpu.dcache.overallHits::cpu.data         70794                       # number of overall hits (Count)
system.cpu.dcache.overallHits::total            70794                       # number of overall hits (Count)
system.cpu.dcache.demandMisses::cpu.data        12550                       # number of demand (read+write) misses (Count)
system.cpu.dcache.demandMisses::total           12550                       # number of demand (read+write) misses (Count)
system.cpu.dcache.overallMisses::cpu.data        12550                       # number of overall misses (Count)
system.cpu.dcache.overallMisses::total          12550                       # number of overall misses (Count)
system.cpu.dcache.demandMissLatency::cpu.data    636145999                       # number of demand (read+write) miss ticks (Tick)
system.cpu.dcache.demandMissLatency::total    636145999                       # number of demand (read+write) miss ticks (Tick)
system.cpu.dcache.overallMissLatency::cpu.data    636145999                       # number of overall miss ticks (Tick)
system.cpu.dcache.overallMissLatency::total    636145999                       # number of overall miss ticks (Tick)
system.cpu.dcache.demandAccesses::cpu.data        83344                       # number of demand (read+write) accesses (Count)
system.cpu.dcache.demandAccesses::total         83344                       # number of demand (read+write) accesses (Count)
system.cpu.dcache.overallAccesses::cpu.data        83344                       # number of overall (read+write) accesses (Count)
system.cpu.dcache.overallAccesses::total        83344                       # number of overall (read+write) accesses (Count)
system.cpu.dcache.demandMissRate::cpu.data     0.150581                       # miss rate for demand accesses (Ratio)
system.cpu.dcache.demandMissRate::total      0.150581                       # miss rate for demand accesses (Ratio)
system.cpu.dcache.overallMissRate::cpu.data     0.150581                       # miss rate for overall accesses (Ratio)
system.cpu.dcache.overallMissRate::total     0.150581                       # miss rate for overall accesses (Ratio)
system.cpu.dcache.demandAvgMissLatency::cpu.data 50688.924223                       # average overall miss latency ((Cycle/Count))
system.cpu.dcache.demandAvgMissLatency::total 50688.924223                       # average overall miss latency ((Cycle/Count))
system.cpu.dcache.overallAvgMissLatency::cpu.data 50688.924223                       # average overall miss latency ((Cycle/Count))
system.cpu.dcache.overallAvgMissLatency::total 50688.924223                       # average overall miss latency ((Cycle/Count))
system.cpu.dcache.blockedCycles::no_mshrs        12272                       # number of cycles access was blocked (Cycle)
system.cpu.dcache.blockedCycles::no_targets          137                       # number of cycles access was blocked (Cycle)
system.cpu.dcache.blockedCauses::no_mshrs          289                       # number of times access was blocked (Count)
system.cpu.dcache.blockedCauses::no_targets            1                       # number of times access was blocked (Count)
system.cpu.dcache.avgBlocked::no_mshrs      42.463668                       # average number of cycles each access was blocked ((Cycle/Count))
system.cpu.dcache.avgBlocked::no_targets          137                       # average number of cycles each access was blocked ((Cycle/Count))
system.cpu.dcache.writebacks::writebacks          517                       # number of writebacks (Count)
system.cpu.dcache.writebacks::total               517                       # number of writebacks (Count)
system.cpu.dcache.demandMshrHits::cpu.data         9672                       # number of demand (read+write) MSHR hits (Count)
system.cpu.dcache.demandMshrHits::total          9672                       # number of demand (read+write) MSHR hits (Count)
system.cpu.dcache.overallMshrHits::cpu.data         9672                       # number of overall MSHR hits (Count)
system.cpu.dcache.overallMshrHits::total         9672                       # number of overall MSHR hits (Count)
system.cpu.dcache.demandMshrMisses::cpu.data         2878                       # number of demand (read+write) MSHR misses (Count)
system.cpu.dcache.demandMshrMisses::total         2878                       # number of demand (read+write) MSHR misses (Count)
system.cpu.dcache.overallMshrMisses::cpu.data         2878                       # number of overall MSHR misses (Count)
system.cpu.dcache.overallMshrMisses::total         2878                       # number of overall MSHR misses (Count)
system.cpu.dcache.demandMshrMissLatency::cpu.data    170429499                       # number of demand (read+write) MSHR miss ticks (Tick)
system.cpu.dcache.demandMshrMissLatency::total    170429499                       # number of demand (read+write) MSHR miss ticks (Tick)
system.cpu.dcache.overallMshrMissLatency::cpu.data    170429499                       # number of overall MSHR miss ticks (Tick)
system.cpu.dcache.overallMshrMissLatency::total    170429499                       # number of overall MSHR miss ticks (Tick)
system.cpu.dcache.demandMshrMissRate::cpu.data     0.034532                       # mshr miss ratio for demand accesses (Ratio)
system.cpu.dcache.demandMshrMissRate::total     0.034532                       # mshr miss ratio for demand accesses (Ratio)
system.cpu.dcache.overallMshrMissRate::cpu.data     0.034532                       # mshr miss ratio for overall accesses (Ratio)
system.cpu.dcache.overallMshrMissRate::total     0.034532                       # mshr miss ratio for overall accesses (Ratio)
system.cpu.dcache.demandAvgMshrMissLatency::cpu.data 59218.033009                       # average overall mshr miss latency ((Cycle/Count))
system.cpu.dcache.demandAvgMshrMissLatency::total 59218.033009                       # average overall mshr miss latency ((Cycle/Count))
system.cpu.dcache.overallAvgMshrMissLatency::cpu.data 59218.033009                       # average overall mshr miss latency ((Cycle/Count))
system.cpu.dcache.overallAvgMshrMissLatency::total 59218.033009                       # average overall mshr miss latency ((Cycle/Count))
system.cpu.dcache.replacements                   1853                       # number of replacements (Count)
system.cpu.dcache.ReadReq.hits::cpu.data        52894                       # number of ReadReq hits (Count)
system.cpu.dcache.ReadReq.hits::total           52894                       # number of ReadReq hits (Count)
system.cpu.dcache.ReadReq.misses::cpu.data        11972                       # number of ReadReq misses (Count)
system.cpu.dcache.ReadReq.misses::total         11972                       # number of ReadReq misses (Count)
system.cpu.dcache.ReadReq.missLatency::cpu.data    602456500                       # number of ReadReq miss ticks (Tick)
system.cpu.dcache.ReadReq.missLatency::total    602456500                       # number of ReadReq miss ticks (Tick)
system.cpu.dcache.ReadReq.accesses::cpu.data        64866                       # number of ReadReq accesses(hits+misses) (Count)
system.cpu.dcache.ReadReq.accesses::total        64866                       # number of ReadReq accesses(hits+misses) (Count)
system.cpu.dcache.ReadReq.missRate::cpu.data     0.184565                       # miss rate for ReadReq accesses (Ratio)
system.cpu.dcache.ReadReq.missRate::total     0.184565                       # miss rate for ReadReq accesses (Ratio)
system.cpu.dcache.ReadReq.avgMissLatency::cpu.data 50322.126629                       # average ReadReq miss latency ((Tick/Count))
system.cpu.dcache.ReadReq.avgMissLatency::total 50322.126629                       # average ReadReq miss latency ((Tick/Count))
system.cpu.dcache.ReadReq.mshrHits::cpu.data         9667                       # number of ReadReq MSHR hits (Count)
system.cpu.dcache.ReadReq.mshrHits::total         9667                       # number of ReadReq MSHR hits (Count)
system.cpu.dcache.ReadReq.mshrMisses::cpu.data         2305                       # number of ReadReq MSHR misses (Count)
system.cpu.dcache.ReadReq.mshrMisses::total         2305                       # number of ReadReq MSHR misses (Count)
system.cpu.dcache.ReadReq.mshrMissLatency::cpu.data    137619000                       # number of ReadReq MSHR miss ticks (Tick)
system.cpu.dcache.ReadReq.mshrMissLatency::total    137619000                       # number of ReadReq MSHR miss ticks (Tick)
system.cpu.dcache.ReadReq.mshrMissRate::cpu.data     0.035535                       # mshr miss rate for ReadReq accesses (Ratio)
system.cpu.dcache.ReadReq.mshrMissRate::total     0.035535                       # mshr miss rate for ReadReq accesses (Ratio)
system.cpu.dcache.ReadReq.avgMshrMissLatency::cpu.data 59704.555315                       # average ReadReq mshr miss latency ((Tick/Count))
system.cpu.dcache.ReadReq.avgMshrMissLatency::total 59704.555315                       # average ReadReq mshr miss latency ((Tick/Count))
system.cpu.dcache.WriteReq.hits::cpu.data        17900                       # number of WriteReq hits (Count)
system.cpu.dcache.WriteReq.hits::total          17900                       # number of WriteReq hits (Count)
system.cpu.dcache.WriteReq.misses::cpu.data          578                       # number of WriteReq misses (Count)
system.cpu.dcache.WriteReq.misses::total          578                       # number of WriteReq misses (Count)
system.cpu.dcache.WriteReq.missLatency::cpu.data     33689499                       # number of WriteReq miss ticks (Tick)
system.cpu.dcache.WriteReq.missLatency::total     33689499                       # number of WriteReq miss ticks (Tick)
system.cpu.dcache.WriteReq.accesses::cpu.data        18478                       # number of WriteReq accesses(hits+misses) (Count)
system.cpu.dcache.WriteReq.accesses::total        18478                       # number of WriteReq accesses(hits+misses) (Count)
system.cpu.dcache.WriteReq.missRate::cpu.data     0.031280                       # miss rate for WriteReq accesses (Ratio)
system.cpu.dcache.WriteReq.missRate::total     0.031280                       # miss rate for WriteReq accesses (Ratio)
system.cpu.dcache.WriteReq.avgMissLatency::cpu.data 58286.330450                       # average WriteReq miss latency ((Tick/Count))
system.cpu.dcache.WriteReq.avgMissLatency::total 58286.330450                       # average WriteReq miss latency ((Tick/Count))
system.cpu.dcache.WriteReq.mshrHits::cpu.data            5                       # number of WriteReq MSHR hits (Count)
system.cpu.dcache.WriteReq.mshrHits::total            5                       # number of WriteReq MSHR hits (Count)
system.cpu.dcache.WriteReq.mshrMisses::cpu.data          573                       # number of WriteReq MSHR misses (Count)
system.cpu.dcache.WriteReq.mshrMisses::total          573                       # number of WriteReq MSHR misses (Count)
system.cpu.dcache.WriteReq.mshrMissLatency::cpu.data     32810499                       # number of WriteReq MSHR miss ticks (Tick)
system.cpu.dcache.WriteReq.mshrMissLatency::total     32810499                       # number of WriteReq MSHR miss ticks (Tick)
system.cpu.dcache.WriteReq.mshrMissRate::cpu.data     0.031010                       # mshr miss rate for WriteReq accesses (Ratio)
system.cpu.dcache.WriteReq.mshrMissRate::total     0.031010                       # mshr miss rate for WriteReq accesses (Ratio)
system.cpu.dcache.WriteReq.avgMshrMissLatency::cpu.data 57260.905759                       # average WriteReq mshr miss latency ((Tick/Count))
system.cpu.dcache.WriteReq.avgMshrMissLatency::total 57260.905759                       # average WriteReq mshr miss latency ((Tick/Count))
system.cpu.dcache.power_state.pwrStateResidencyTicks::UNDEFINED 391201542500                       # Cumulative time (in ticks) in various power states (Tick)
system.cpu.dcache.tags.tagsInUse          1023.890102                       # Average ticks per tags in use ((Tick/Count))
system.cpu.dcache.tags.totalRefs                73672                       # Total number of references to valid blocks. (Count)
system.cpu.dcache.tags.sampledRefs               2877                       # Sample count of references to valid blocks. (Count)
system.cpu.dcache.tags.avgRefs              25.607230                       # Average number of references to valid blocks. ((Count/Count))
system.cpu.dcache.tags.warmupTick              148000                       # The tick when the warmup percentage was hit. (Tick)
system.cpu.dcache.tags.occupancies::cpu.data  1023.890102                       # Average occupied blocks per tick, per requestor ((Count/Tick))
system.cpu.dcache.tags.avgOccs::cpu.data     0.999893                       # Average percentage of cache occupancy ((Ratio/Tick))
system.cpu.dcache.tags.avgOccs::total        0.999893                       # Average percentage of cache occupancy ((Ratio/Tick))
system.cpu.dcache.tags.occupanciesTaskId::1024         1024                       # Occupied blocks per task id (Count)
system.cpu.dcache.tags.ageTaskId_1024::4         1024                       # Occupied blocks per task id, per block age (Count)
system.cpu.dcache.tags.ratioOccsTaskId::1024            1                       # Ratio of occupied blocks and all blocks, per task id (Ratio)
system.cpu.dcache.tags.tagAccesses             169565                       # Number of tag accesses (Count)
system.cpu.dcache.tags.dataAccesses            169565                       # Number of data accesses (Count)
system.cpu.dcache.tags.power_state.pwrStateResidencyTicks::UNDEFINED 391201542500                       # Cumulative time (in ticks) in various power states (Tick)
system.cpu.decode.idleCycles                    93593                       # Number of cycles decode is idle (Cycle)
system.cpu.decode.blockedCycles                165328                       # Number of cycles decode is blocked (Cycle)
system.cpu.decode.runCycles                     90975                       # Number of cycles decode is running (Cycle)
system.cpu.decode.unblockCycles                 12002                       # Number of cycles decode is unblocking (Cycle)
system.cpu.decode.squashCycles                   6089                       # Number of cycles decode is squashing (Cycle)
system.cpu.decode.branchResolved                27397                       # Number of times decode resolved a branch (Count)
system.cpu.decode.branchMispred                   679                       # Number of times decode detected a branch misprediction (Count)
system.cpu.decode.decodedInsts                 678937                       # Number of instructions handled by decode (Count)
system.cpu.decode.squashedInsts                  3258                       # Number of squashed instructions handled by decode (Count)
system.cpu.dtb_walker_cache.blockedCycles::no_mshrs            0                       # number of cycles access was blocked (Cycle)
system.cpu.dtb_walker_cache.blockedCycles::no_targets            0                       # number of cycles access was blocked (Cycle)
system.cpu.dtb_walker_cache.blockedCauses::no_mshrs            0                       # number of times access was blocked (Count)
system.cpu.dtb_walker_cache.blockedCauses::no_targets            0                       # number of times access was blocked (Count)
system.cpu.dtb_walker_cache.avgBlocked::no_mshrs          nan                       # average number of cycles each access was blocked ((Cycle/Count))
system.cpu.dtb_walker_cache.avgBlocked::no_targets          nan                       # average number of cycles each access was blocked ((Cycle/Count))
system.cpu.dtb_walker_cache.replacements            0                       # number of replacements (Count)
system.cpu.dtb_walker_cache.power_state.pwrStateResidencyTicks::UNDEFINED 391201542500                       # Cumulative time (in ticks) in various power states (Tick)
system.cpu.dtb_walker_cache.tags.tagsInUse            0                       # Average ticks per tags in use ((Tick/Count))
system.cpu.dtb_walker_cache.tags.totalRefs            0                       # Total number of references to valid blocks. (Count)
system.cpu.dtb_walker_cache.tags.sampledRefs            0                       # Sample count of references to valid blocks. (Count)
system.cpu.dtb_walker_cache.tags.avgRefs          nan                       # Average number of references to valid blocks. ((Count/Count))
system.cpu.dtb_walker_cache.tags.warmupTick            0                       # The tick when the warmup percentage was hit. (Tick)
system.cpu.dtb_walker_cache.tags.tagAccesses            0                       # Number of tag accesses (Count)
system.cpu.dtb_walker_cache.tags.dataAccesses            0                       # Number of data accesses (Count)
system.cpu.dtb_walker_cache.tags.power_state.pwrStateResidencyTicks::UNDEFINED 391201542500                       # Cumulative time (in ticks) in various power states (Tick)
system.cpu.fetch.icacheStallCycles             105182                       # Number of cycles fetch is stalled on an Icache miss (Cycle)
system.cpu.fetch.insts                         398810                       # Number of instructions fetch has processed (Count)
system.cpu.fetch.branches                       87774                       # Number of branches that fetch encountered (Count)
system.cpu.fetch.predictedBranches              31624                       # Number of branches that fetch has predicted taken (Count)
system.cpu.fetch.cycles                        252646                       # Number of cycles fetch has run and was not squashing or blocked (Cycle)
system.cpu.fetch.squashCycles                   13498                       # Number of cycles fetch has spent squashing (Cycle)
system.cpu.fetch.miscStallCycles                  470                       # Number of cycles fetch has spent waiting on interrupts, or bad addresses, or out of MSHRs (Cycle)
system.cpu.fetch.pendingTrapStallCycles          2882                       # Number of stall cycles due to pending traps (Cycle)
system.cpu.fetch.pendingQuiesceStallCycles           10                       # Number of stall cycles due to pending quiesce instructions (Cycle)
system.cpu.fetch.icacheWaitRetryStallCycles           48                       # Number of stall cycles due to full MSHR (Cycle)
system.cpu.fetch.cacheLines                     53672                       # Number of cache lines fetched (Count)
system.cpu.fetch.icacheSquashes                  2415                       # Number of outstanding Icache misses that were squashed (Count)
system.cpu.fetch.nisnDist::samples             367987                       # Number of instructions fetched each cycle (Total) (Count)
system.cpu.fetch.nisnDist::mean              1.993114                       # Number of instructions fetched each cycle (Total) (Count)
system.cpu.fetch.nisnDist::stdev             3.227453                       # Number of instructions fetched each cycle (Total) (Count)
system.cpu.fetch.nisnDist::underflows               0      0.00%      0.00% # Number of instructions fetched each cycle (Total) (Count)
system.cpu.fetch.nisnDist::0                   247399     67.23%     67.23% # Number of instructions fetched each cycle (Total) (Count)
system.cpu.fetch.nisnDist::1                    10355      2.81%     70.04% # Number of instructions fetched each cycle (Total) (Count)
system.cpu.fetch.nisnDist::2                    14686      3.99%     74.04% # Number of instructions fetched each cycle (Total) (Count)
system.cpu.fetch.nisnDist::3                     3682      1.00%     75.04% # Number of instructions fetched each cycle (Total) (Count)
system.cpu.fetch.nisnDist::4                     4579      1.24%     76.28% # Number of instructions fetched each cycle (Total) (Count)
system.cpu.fetch.nisnDist::5                     5213      1.42%     77.70% # Number of instructions fetched each cycle (Total) (Count)
system.cpu.fetch.nisnDist::6                     5455      1.48%     79.18% # Number of instructions fetched each cycle (Total) (Count)
system.cpu.fetch.nisnDist::7                     7388      2.01%     81.19% # Number of instructions fetched each cycle (Total) (Count)
system.cpu.fetch.nisnDist::8                    69230     18.81%    100.00% # Number of instructions fetched each cycle (Total) (Count)
system.cpu.fetch.nisnDist::overflows                0      0.00%    100.00% # Number of instructions fetched each cycle (Total) (Count)
system.cpu.fetch.nisnDist::min_value                0                       # Number of instructions fetched each cycle (Total) (Count)
system.cpu.fetch.nisnDist::max_value                8                       # Number of instructions fetched each cycle (Total) (Count)
system.cpu.fetch.nisnDist::total               367987                       # Number of instructions fetched each cycle (Total) (Count)
system.cpu.fetch.branchRate                  0.190771                       # Number of branch fetches per cycle (Ratio)
system.cpu.fetch.rate                        0.866786                       # Number of inst fetches per cycle ((Count/Cycle))
system.cpu.icache.demandHits::cpu.inst          51189                       # number of demand (read+write) hits (Count)
system.cpu.icache.demandHits::total             51189                       # number of demand (read+write) hits (Count)
system.cpu.icache.overallHits::cpu.inst         51189                       # number of overall hits (Count)
system.cpu.icache.overallHits::total            51189                       # number of overall hits (Count)
system.cpu.icache.demandMisses::cpu.inst         2482                       # number of demand (read+write) misses (Count)
system.cpu.icache.demandMisses::total            2482                       # number of demand (read+write) misses (Count)
system.cpu.icache.overallMisses::cpu.inst         2482                       # number of overall misses (Count)
system.cpu.icache.overallMisses::total           2482                       # number of overall misses (Count)
system.cpu.icache.demandMissLatency::cpu.inst    129640499                       # number of demand (read+write) miss ticks (Tick)
system.cpu.icache.demandMissLatency::total    129640499                       # number of demand (read+write) miss ticks (Tick)
system.cpu.icache.overallMissLatency::cpu.inst    129640499                       # number of overall miss ticks (Tick)
system.cpu.icache.overallMissLatency::total    129640499                       # number of overall miss ticks (Tick)
system.cpu.icache.demandAccesses::cpu.inst        53671                       # number of demand (read+write) accesses (Count)
system.cpu.icache.demandAccesses::total         53671                       # number of demand (read+write) accesses (Count)
system.cpu.icache.overallAccesses::cpu.inst        53671                       # number of overall (read+write) accesses (Count)
system.cpu.icache.overallAccesses::total        53671                       # number of overall (read+write) accesses (Count)
system.cpu.icache.demandMissRate::cpu.inst     0.046245                       # miss rate for demand accesses (Ratio)
system.cpu.icache.demandMissRate::total      0.046245                       # miss rate for demand accesses (Ratio)
system.cpu.icache.overallMissRate::cpu.inst     0.046245                       # miss rate for overall accesses (Ratio)
system.cpu.icache.overallMissRate::total     0.046245                       # miss rate for overall accesses (Ratio)
system.cpu.icache.demandAvgMissLatency::cpu.inst 52232.271958                       # average overall miss latency ((Cycle/Count))
system.cpu.icache.demandAvgMissLatency::total 52232.271958                       # average overall miss latency ((Cycle/Count))
system.cpu.icache.overallAvgMissLatency::cpu.inst 52232.271958                       # average overall miss latency ((Cycle/Count))
system.cpu.icache.overallAvgMissLatency::total 52232.271958                       # average overall miss latency ((Cycle/Count))
system.cpu.icache.blockedCycles::no_mshrs          678                       # number of cycles access was blocked (Cycle)
system.cpu.icache.blockedCycles::no_targets            0                       # number of cycles access was blocked (Cycle)
system.cpu.icache.blockedCauses::no_mshrs            9                       # number of times access was blocked (Count)
system.cpu.icache.blockedCauses::no_targets            0                       # number of times access was blocked (Count)
system.cpu.icache.avgBlocked::no_mshrs      75.333333                       # average number of cycles each access was blocked ((Cycle/Count))
system.cpu.icache.avgBlocked::no_targets          nan                       # average number of cycles each access was blocked ((Cycle/Count))
system.cpu.icache.writebacks::writebacks         1359                       # number of writebacks (Count)
system.cpu.icache.writebacks::total              1359                       # number of writebacks (Count)
system.cpu.icache.demandMshrHits::cpu.inst          612                       # number of demand (read+write) MSHR hits (Count)
system.cpu.icache.demandMshrHits::total           612                       # number of demand (read+write) MSHR hits (Count)
system.cpu.icache.overallMshrHits::cpu.inst          612                       # number of overall MSHR hits (Count)
system.cpu.icache.overallMshrHits::total          612                       # number of overall MSHR hits (Count)
system.cpu.icache.demandMshrMisses::cpu.inst         1870                       # number of demand (read+write) MSHR misses (Count)
system.cpu.icache.demandMshrMisses::total         1870                       # number of demand (read+write) MSHR misses (Count)
system.cpu.icache.overallMshrMisses::cpu.inst         1870                       # number of overall MSHR misses (Count)
system.cpu.icache.overallMshrMisses::total         1870                       # number of overall MSHR misses (Count)
system.cpu.icache.demandMshrMissLatency::cpu.inst    101831999                       # number of demand (read+write) MSHR miss ticks (Tick)
system.cpu.icache.demandMshrMissLatency::total    101831999                       # number of demand (read+write) MSHR miss ticks (Tick)
system.cpu.icache.overallMshrMissLatency::cpu.inst    101831999                       # number of overall MSHR miss ticks (Tick)
system.cpu.icache.overallMshrMissLatency::total    101831999                       # number of overall MSHR miss ticks (Tick)
system.cpu.icache.demandMshrMissRate::cpu.inst     0.034842                       # mshr miss ratio for demand accesses (Ratio)
system.cpu.icache.demandMshrMissRate::total     0.034842                       # mshr miss ratio for demand accesses (Ratio)
system.cpu.icache.overallMshrMissRate::cpu.inst     0.034842                       # mshr miss ratio for overall accesses (Ratio)
system.cpu.icache.overallMshrMissRate::total     0.034842                       # mshr miss ratio for overall accesses (Ratio)
system.cpu.icache.demandAvgMshrMissLatency::cpu.inst 54455.614439                       # average overall mshr miss latency ((Cycle/Count))
system.cpu.icache.demandAvgMshrMissLatency::total 54455.614439                       # average overall mshr miss latency ((Cycle/Count))
system.cpu.icache.overallAvgMshrMissLatency::cpu.inst 54455.614439                       # average overall mshr miss latency ((Cycle/Count))
system.cpu.icache.overallAvgMshrMissLatency::total 54455.614439                       # average overall mshr miss latency ((Cycle/Count))
system.cpu.icache.replacements                   1359                       # number of replacements (Count)
system.cpu.icache.ReadReq.hits::cpu.inst        51189                       # number of ReadReq hits (Count)
system.cpu.icache.ReadReq.hits::total           51189                       # number of ReadReq hits (Count)
system.cpu.icache.ReadReq.misses::cpu.inst         2482                       # number of ReadReq misses (Count)
system.cpu.icache.ReadReq.misses::total          2482                       # number of ReadReq misses (Count)
system.cpu.icache.ReadReq.missLatency::cpu.inst    129640499                       # number of ReadReq miss ticks (Tick)
system.cpu.icache.ReadReq.missLatency::total    129640499                       # number of ReadReq miss ticks (Tick)
system.cpu.icache.ReadReq.accesses::cpu.inst        53671                       # number of ReadReq accesses(hits+misses) (Count)
system.cpu.icache.ReadReq.accesses::total        53671                       # number of ReadReq accesses(hits+misses) (Count)
system.cpu.icache.ReadReq.missRate::cpu.inst     0.046245                       # miss rate for ReadReq accesses (Ratio)
system.cpu.icache.ReadReq.missRate::total     0.046245                       # miss rate for ReadReq accesses (Ratio)
system.cpu.icache.ReadReq.avgMissLatency::cpu.inst 52232.271958                       # average ReadReq miss latency ((Tick/Count))
system.cpu.icache.ReadReq.avgMissLatency::total 52232.271958                       # average ReadReq miss latency ((Tick/Count))
system.cpu.icache.ReadReq.mshrHits::cpu.inst          612                       # number of ReadReq MSHR hits (Count)
system.cpu.icache.ReadReq.mshrHits::total          612                       # number of ReadReq MSHR hits (Count)
system.cpu.icache.ReadReq.mshrMisses::cpu.inst         1870                       # number of ReadReq MSHR misses (Count)
system.cpu.icache.ReadReq.mshrMisses::total         1870                       # number of ReadReq MSHR misses (Count)
system.cpu.icache.ReadReq.mshrMissLatency::cpu.inst    101831999                       # number of ReadReq MSHR miss ticks (Tick)
system.cpu.icache.ReadReq.mshrMissLatency::total    101831999                       # number of ReadReq MSHR miss ticks (Tick)
system.cpu.icache.ReadReq.mshrMissRate::cpu.inst     0.034842                       # mshr miss rate for ReadReq accesses (Ratio)
system.cpu.icache.ReadReq.mshrMissRate::total     0.034842                       # mshr miss rate for ReadReq accesses (Ratio)
system.cpu.icache.ReadReq.avgMshrMissLatency::cpu.inst 54455.614439                       # average ReadReq mshr miss latency ((Tick/Count))
system.cpu.icache.ReadReq.avgMshrMissLatency::total 54455.614439                       # average ReadReq mshr miss latency ((Tick/Count))
system.cpu.icache.power_state.pwrStateResidencyTicks::UNDEFINED 391201542500                       # Cumulative time (in ticks) in various power states (Tick)
system.cpu.icache.tags.tagsInUse           508.529123                       # Average ticks per tags in use ((Tick/Count))
system.cpu.icache.tags.totalRefs                53058                       # Total number of references to valid blocks. (Count)
system.cpu.icache.tags.sampledRefs               1869                       # Sample count of references to valid blocks. (Count)
system.cpu.icache.tags.avgRefs              28.388443                       # Average number of references to valid blocks. ((Count/Count))
system.cpu.icache.tags.warmupTick               77000                       # The tick when the warmup percentage was hit. (Tick)
system.cpu.icache.tags.occupancies::cpu.inst   508.529123                       # Average occupied blocks per tick, per requestor ((Count/Tick))
system.cpu.icache.tags.avgOccs::cpu.inst     0.993221                       # Average percentage of cache occupancy ((Ratio/Tick))
system.cpu.icache.tags.avgOccs::total        0.993221                       # Average percentage of cache occupancy ((Ratio/Tick))
system.cpu.icache.tags.occupanciesTaskId::1024          509                       # Occupied blocks per task id (Count)
system.cpu.icache.tags.ageTaskId_1024::0           31                       # Occupied blocks per task id, per block age (Count)
system.cpu.icache.tags.ageTaskId_1024::4          478                       # Occupied blocks per task id, per block age (Count)
system.cpu.icache.tags.ratioOccsTaskId::1024     0.994141                       # Ratio of occupied blocks and all blocks, per task id (Ratio)
system.cpu.icache.tags.tagAccesses             109211                       # Number of tag accesses (Count)
system.cpu.icache.tags.dataAccesses            109211                       # Number of data accesses (Count)
system.cpu.icache.tags.power_state.pwrStateResidencyTicks::UNDEFINED 391201542500                       # Cumulative time (in ticks) in various power states (Tick)
system.cpu.iew.idleCycles                           0                       # Number of cycles IEW is idle (Cycle)
system.cpu.iew.squashCycles                      6089                       # Number of cycles IEW is squashing (Cycle)
system.cpu.iew.blockCycles                      82702                       # Number of cycles IEW is blocking (Cycle)
system.cpu.iew.unblockCycles                     3114                       # Number of cycles IEW is unblocking (Cycle)
system.cpu.iew.dispatchedInsts                 617306                       # Number of instructions dispatched to IQ (Count)
system.cpu.iew.dispSquashedInsts                  581                       # Number of squashed instructions skipped by dispatch (Count)
system.cpu.iew.dispLoadInsts                    77806                       # Number of dispatched load instructions (Count)
system.cpu.iew.dispStoreInsts                   27214                       # Number of dispatched store instructions (Count)
system.cpu.iew.dispNonSpecInsts                    47                       # Number of dispatched non-speculative instructions (Count)
system.cpu.iew.iqFullEvents                       775                       # Number of times the IQ has become full, causing a stall (Count)
system.cpu.iew.lsqFullEvents                     2015                       # Number of times the LSQ has become full, causing a stall (Count)
system.cpu.iew.memOrderViolationEvents             98                       # Number of memory order violations (Count)
system.cpu.iew.predictedTakenIncorrect           1727                       # Number of branches that were predicted taken incorrectly (Count)
system.cpu.iew.predictedNotTakenIncorrect         5251                       # Number of branches that were predicted not taken incorrectly (Count)
system.cpu.iew.branchMispredicts                 6978                       # Number of branch mispredicts detected at execute (Count)
system.cpu.iew.instsToCommit                   533060                       # Cumulative count of insts sent to commit (Count)
system.cpu.iew.writebackCount                  530407                       # Cumulative count of insts written-back (Count)
system.cpu.iew.producerInst                    410295                       # Number of instructions producing a value (Count)
system.cpu.iew.consumerInst                    677546                       # Number of instructions consuming a value (Count)
system.cpu.iew.wbRate                        1.152803                       # Insts written-back per cycle ((Count/Cycle))
system.cpu.iew.wbFanout                      0.605560                       # Average fanout of values written-back ((Count/Count))
system.cpu.interrupts.clk_domain.clock           8000                       # Clock period in ticks (Tick)
system.cpu.itb_walker_cache.blockedCycles::no_mshrs            0                       # number of cycles access was blocked (Cycle)
system.cpu.itb_walker_cache.blockedCycles::no_targets            0                       # number of cycles access was blocked (Cycle)
system.cpu.itb_walker_cache.blockedCauses::no_mshrs            0                       # number of times access was blocked (Count)
system.cpu.itb_walker_cache.blockedCauses::no_targets            0                       # number of times access was blocked (Count)
system.cpu.itb_walker_cache.avgBlocked::no_mshrs          nan                       # average number of cycles each access was blocked ((Cycle/Count))
system.cpu.itb_walker_cache.avgBlocked::no_targets          nan                       # average number of cycles each access was blocked ((Cycle/Count))
system.cpu.itb_walker_cache.replacements            0                       # number of replacements (Count)
system.cpu.itb_walker_cache.power_state.pwrStateResidencyTicks::UNDEFINED 391201542500                       # Cumulative time (in ticks) in various power states (Tick)
system.cpu.itb_walker_cache.tags.tagsInUse            0                       # Average ticks per tags in use ((Tick/Count))
system.cpu.itb_walker_cache.tags.totalRefs            0                       # Total number of references to valid blocks. (Count)
system.cpu.itb_walker_cache.tags.sampledRefs            0                       # Sample count of references to valid blocks. (Count)
system.cpu.itb_walker_cache.tags.avgRefs          nan                       # Average number of references to valid blocks. ((Count/Count))
system.cpu.itb_walker_cache.tags.warmupTick            0                       # The tick when the warmup percentage was hit. (Tick)
system.cpu.itb_walker_cache.tags.tagAccesses            0                       # Number of tag accesses (Count)
system.cpu.itb_walker_cache.tags.dataAccesses            0                       # Number of data accesses (Count)
system.cpu.itb_walker_cache.tags.power_state.pwrStateResidencyTicks::UNDEFINED 391201542500                       # Cumulative time (in ticks) in various power states (Tick)
system.cpu.lsq0.forwLoads                        3342                       # Number of loads that had data forwarded from stores (Count)
system.cpu.lsq0.squashedLoads                   29763                       # Number of loads squashed (Count)
system.cpu.lsq0.ignoredResponses                   17                       # Number of memory responses ignored because the instruction is squashed (Count)
system.cpu.lsq0.memOrderViolation                  98                       # Number of memory ordering violations (Count)
system.cpu.lsq0.squashedStores                   8733                       # Number of stores squashed (Count)
system.cpu.lsq0.rescheduledLoads                   68                       # Number of loads that were rescheduled (Count)
system.cpu.lsq0.blockedByCache                    236                       # Number of times an access to memory failed due to the cache being blocked (Count)
system.cpu.lsq0.loadToUse::samples              48035                       # Distribution of cycle latency between the first time a load is issued and its completion (Unspecified)
system.cpu.lsq0.loadToUse::mean             20.823816                       # Distribution of cycle latency between the first time a load is issued and its completion (Unspecified)
system.cpu.lsq0.loadToUse::stdev            48.113896                       # Distribution of cycle latency between the first time a load is issued and its completion (Unspecified)
system.cpu.lsq0.loadToUse::0-9                  39685     82.62%     82.62% # Distribution of cycle latency between the first time a load is issued and its completion (Unspecified)
system.cpu.lsq0.loadToUse::10-19                  367      0.76%     83.38% # Distribution of cycle latency between the first time a load is issued and its completion (Unspecified)
system.cpu.lsq0.loadToUse::20-29                  288      0.60%     83.98% # Distribution of cycle latency between the first time a load is issued and its completion (Unspecified)
system.cpu.lsq0.loadToUse::30-39                  196      0.41%     84.39% # Distribution of cycle latency between the first time a load is issued and its completion (Unspecified)
system.cpu.lsq0.loadToUse::40-49                  271      0.56%     84.95% # Distribution of cycle latency between the first time a load is issued and its completion (Unspecified)
system.cpu.lsq0.loadToUse::50-59                  183      0.38%     85.33% # Distribution of cycle latency between the first time a load is issued and its completion (Unspecified)
system.cpu.lsq0.loadToUse::60-69                  165      0.34%     85.68% # Distribution of cycle latency between the first time a load is issued and its completion (Unspecified)
system.cpu.lsq0.loadToUse::70-79                  363      0.76%     86.43% # Distribution of cycle latency between the first time a load is issued and its completion (Unspecified)
system.cpu.lsq0.loadToUse::80-89                  498      1.04%     87.47% # Distribution of cycle latency between the first time a load is issued and its completion (Unspecified)
[...]
system.mem_ctrls.dram.bwTotal::writebacks        84580                       # Total bandwidth to/from this memory ((Byte/Second))
system.mem_ctrls.dram.bwTotal::cpu.inst        305602                       # Total bandwidth to/from this memory ((Byte/Second))
system.mem_ctrls.dram.bwTotal::cpu.data        470673                       # Total bandwidth to/from this memory ((Byte/Second))
system.mem_ctrls.dram.bwTotal::total           860856                       # Total bandwidth to/from this memory ((Byte/Second))
system.mem_ctrls.dram.readBursts                 4357                       # Number of DRAM read bursts (Count)
system.mem_ctrls.dram.writeBursts                1676                       # Number of DRAM write bursts (Count)
system.mem_ctrls.dram.perBankRdBursts::0          348                       # Per bank write bursts (Count)
system.mem_ctrls.dram.perBankRdBursts::1          362                       # Per bank write bursts (Count)
system.mem_ctrls.dram.perBankRdBursts::2          374                       # Per bank write bursts (Count)
system.mem_ctrls.dram.perBankRdBursts::3          250                       # Per bank write bursts (Count)
system.mem_ctrls.dram.perBankRdBursts::4          296                       # Per bank write bursts (Count)
system.mem_ctrls.dram.perBankRdBursts::5          226                       # Per bank write bursts (Count)
system.mem_ctrls.dram.perBankRdBursts::6          281                       # Per bank write bursts (Count)
system.mem_ctrls.dram.perBankRdBursts::7          158                       # Per bank write bursts (Count)
system.mem_ctrls.dram.perBankRdBursts::8          234                       # Per bank write bursts (Count)
system.mem_ctrls.dram.perBankRdBursts::9          355                       # Per bank write bursts (Count)
system.mem_ctrls.dram.perBankRdBursts::10          342                       # Per bank write bursts (Count)
system.mem_ctrls.dram.perBankRdBursts::11          257                       # Per bank write bursts (Count)
system.mem_ctrls.dram.perBankRdBursts::12          184                       # Per bank write bursts (Count)
system.mem_ctrls.dram.perBankRdBursts::13          191                       # Per bank write bursts (Count)
system.mem_ctrls.dram.perBankRdBursts::14          250                       # Per bank write bursts (Count)
system.mem_ctrls.dram.perBankRdBursts::15          249                       # Per bank write bursts (Count)
system.mem_ctrls.dram.perBankWrBursts::0          115                       # Per bank write bursts (Count)
system.mem_ctrls.dram.perBankWrBursts::1          150                       # Per bank write bursts (Count)
system.mem_ctrls.dram.perBankWrBursts::2          152                       # Per bank write bursts (Count)
system.mem_ctrls.dram.perBankWrBursts::3          136                       # Per bank write bursts (Count)
system.mem_ctrls.dram.perBankWrBursts::4          152                       # Per bank write bursts (Count)
system.mem_ctrls.dram.perBankWrBursts::5          150                       # Per bank write bursts (Count)
system.mem_ctrls.dram.perBankWrBursts::6          129                       # Per bank write bursts (Count)
system.mem_ctrls.dram.perBankWrBursts::7           44                       # Per bank write bursts (Count)
system.mem_ctrls.dram.perBankWrBursts::8           75                       # Per bank write bursts (Count)
system.mem_ctrls.dram.perBankWrBursts::9          124                       # Per bank write bursts (Count)
system.mem_ctrls.dram.perBankWrBursts::10          137                       # Per bank write bursts (Count)
system.mem_ctrls.dram.perBankWrBursts::11           72                       # Per bank write bursts (Count)
system.mem_ctrls.dram.perBankWrBursts::12           58                       # Per bank write bursts (Count)
system.mem_ctrls.dram.perBankWrBursts::13            1                       # Per bank write bursts (Count)
system.mem_ctrls.dram.perBankWrBursts::14           61                       # Per bank write bursts (Count)
system.mem_ctrls.dram.perBankWrBursts::15          120                       # Per bank write bursts (Count)
system.mem_ctrls.dram.totQLat                42939500                       # Total ticks spent queuing (Tick)
system.mem_ctrls.dram.totBusLat              21785000                       # Total ticks spent in databus transfers (Tick)
system.mem_ctrls.dram.totMemAccLat          124633250                       # Total ticks spent from burst creation until serviced by the DRAM (Tick)
system.mem_ctrls.dram.avgQLat                 9855.29                       # Average queueing delay per DRAM burst ((Tick/Count))
system.mem_ctrls.dram.avgBusLat               5000.00                       # Average bus latency per DRAM burst ((Tick/Count))
system.mem_ctrls.dram.avgMemAccLat           28605.29                       # Average memory access latency per DRAM burst ((Tick/Count))
system.mem_ctrls.dram.readRowHits                3625                       # Number of row buffer hits during reads (Count)
system.mem_ctrls.dram.writeRowHits               1311                       # Number of row buffer hits during writes (Count)
system.mem_ctrls.dram.readRowHitRate            83.20                       # Row buffer hit rate for reads (Ratio)
system.mem_ctrls.dram.writeRowHitRate           78.22                       # Row buffer hit rate for writes (Ratio)
system.mem_ctrls.dram.bytesPerActivate::samples         1087                       # Bytes accessed per row activation (Byte)
system.mem_ctrls.dram.bytesPerActivate::mean   352.735971                       # Bytes accessed per row activation (Byte)
system.mem_ctrls.dram.bytesPerActivate::gmean   228.167940                       # Bytes accessed per row activation (Byte)
system.mem_ctrls.dram.bytesPerActivate::stdev   324.201406                       # Bytes accessed per row activation (Byte)
system.mem_ctrls.dram.bytesPerActivate::0-127          263     24.20%     24.20% # Bytes accessed per row activation (Byte)
system.mem_ctrls.dram.bytesPerActivate::128-255          278     25.57%     49.77% # Bytes accessed per row activation (Byte)
system.mem_ctrls.dram.bytesPerActivate::256-383          176     16.19%     65.96% # Bytes accessed per row activation (Byte)
system.mem_ctrls.dram.bytesPerActivate::384-511           91      8.37%     74.33% # Bytes accessed per row activation (Byte)
system.mem_ctrls.dram.bytesPerActivate::512-639           60      5.52%     79.85% # Bytes accessed per row activation (Byte)
system.mem_ctrls.dram.bytesPerActivate::640-767           37      3.40%     83.26% # Bytes accessed per row activation (Byte)
system.mem_ctrls.dram.bytesPerActivate::768-895           23      2.12%     85.37% # Bytes accessed per row activation (Byte)
system.mem_ctrls.dram.bytesPerActivate::896-1023           20      1.84%     87.21% # Bytes accessed per row activation (Byte)
system.mem_ctrls.dram.bytesPerActivate::1024-1151          139     12.79%    100.00% # Bytes accessed per row activation (Byte)
system.mem_ctrls.dram.bytesPerActivate::total         1087                       # Bytes accessed per row activation (Byte)
system.mem_ctrls.dram.bytesRead                278848                       # Total bytes read (Byte)
system.mem_ctrls.dram.bytesWritten             107264                       # Total bytes written (Byte)
system.mem_ctrls.dram.avgRdBW                0.712799                       # Average DRAM read bandwidth in MiBytes/s ((Byte/Second))
system.mem_ctrls.dram.avgWrBW                0.274191                       # Average DRAM write bandwidth in MiBytes/s ((Byte/Second))
system.mem_ctrls.dram.peakBW                 12800.00                       # Theoretical peak bandwidth in MiByte/s ((Byte/Second))
system.mem_ctrls.dram.busUtil                    0.01                       # Data bus utilization in percentage (Ratio)
system.mem_ctrls.dram.busUtilRead                0.01                       # Data bus utilization in percentage for reads (Ratio)
system.mem_ctrls.dram.busUtilWrite               0.00                       # Data bus utilization in percentage for writes (Ratio)
system.mem_ctrls.dram.pageHitRate               81.82                       # Row buffer hit rate, read and write combined (Ratio)
system.mem_ctrls.dram.power_state.pwrStateResidencyTicks::UNDEFINED 391201542500                       # Cumulative time (in ticks) in various power states (Tick)
system.mem_ctrls.dram.rank0.actEnergy         4198320                       # Energy for activate commands per rank (pJ) (Joule)
system.mem_ctrls.dram.rank0.preEnergy         2212485                       # Energy for precharge commands per rank (pJ) (Joule)
system.mem_ctrls.dram.rank0.readEnergy       16379160                       # Energy for read commands per rank (pJ) (Joule)
system.mem_ctrls.dram.rank0.writeEnergy       5366160                       # Energy for write commands per rank (pJ) (Joule)
system.mem_ctrls.dram.rank0.refreshEnergy 30880742880.000004                       # Energy for refresh commands per rank (pJ) (Joule)
system.mem_ctrls.dram.rank0.actBackEnergy   5759888190                       # Energy for active background per rank (pJ) (Joule)
system.mem_ctrls.dram.rank0.preBackEnergy 145370960160                       # Energy for precharge background per rank (pJ) (Joule)
system.mem_ctrls.dram.rank0.actPowerDownEnergy            0                       # Energy for active power-down per rank (pJ) (Joule)
system.mem_ctrls.dram.rank0.prePowerDownEnergy            0                       # Energy for precharge power-down per rank (pJ) (Joule)
system.mem_ctrls.dram.rank0.selfRefreshEnergy            0                       # Energy for self refresh per rank (pJ) (Joule)
system.mem_ctrls.dram.rank0.totalEnergy  182039747355                       # Total energy per rank (pJ) (Joule)
system.mem_ctrls.dram.rank0.averagePower   465.334943                       # Core power per rank (mW) (Watt)
system.mem_ctrls.dram.rank0.totalIdleTime            0                       # Total Idle time Per DRAM Rank (Tick)
system.mem_ctrls.dram.rank0.pwrStateTime::IDLE 377878680750                       # Time in different power states (Tick)
system.mem_ctrls.dram.rank0.pwrStateTime::REF  13062920000                       # Time in different power states (Tick)
system.mem_ctrls.dram.rank0.pwrStateTime::SREF            0                       # Time in different power states (Tick)
system.mem_ctrls.dram.rank0.pwrStateTime::PRE_PDN            0                       # Time in different power states (Tick)
system.mem_ctrls.dram.rank0.pwrStateTime::ACT    259941750                       # Time in different power states (Tick)
system.mem_ctrls.dram.rank0.pwrStateTime::ACT_PDN            0                       # Time in different power states (Tick)
system.mem_ctrls.dram.rank1.actEnergy         3634260                       # Energy for activate commands per rank (pJ) (Joule)
system.mem_ctrls.dram.rank1.preEnergy         1912680                       # Energy for precharge commands per rank (pJ) (Joule)
system.mem_ctrls.dram.rank1.readEnergy       14722680                       # Energy for read commands per rank (pJ) (Joule)
system.mem_ctrls.dram.rank1.writeEnergy       3382560                       # Energy for write commands per rank (pJ) (Joule)
system.mem_ctrls.dram.rank1.refreshEnergy 30880742880.000004                       # Energy for refresh commands per rank (pJ) (Joule)
system.mem_ctrls.dram.rank1.actBackEnergy   5751068580                       # Energy for active background per rank (pJ) (Joule)
system.mem_ctrls.dram.rank1.preBackEnergy 145378387200                       # Energy for precharge background per rank (pJ) (Joule)
system.mem_ctrls.dram.rank1.actPowerDownEnergy            0                       # Energy for active power-down per rank (pJ) (Joule)
system.mem_ctrls.dram.rank1.prePowerDownEnergy            0                       # Energy for precharge power-down per rank (pJ) (Joule)
system.mem_ctrls.dram.rank1.selfRefreshEnergy            0                       # Energy for self refresh per rank (pJ) (Joule)
system.mem_ctrls.dram.rank1.totalEnergy  182033850840                       # Total energy per rank (pJ) (Joule)
system.mem_ctrls.dram.rank1.averagePower   465.319870                       # Core power per rank (mW) (Watt)
system.mem_ctrls.dram.rank1.totalIdleTime            0                       # Total Idle time Per DRAM Rank (Tick)
system.mem_ctrls.dram.rank1.pwrStateTime::IDLE 377898090250                       # Time in different power states (Tick)
system.mem_ctrls.dram.rank1.pwrStateTime::REF  13062920000                       # Time in different power states (Tick)
system.mem_ctrls.dram.rank1.pwrStateTime::SREF            0                       # Time in different power states (Tick)
system.mem_ctrls.dram.rank1.pwrStateTime::PRE_PDN            0                       # Time in different power states (Tick)
system.mem_ctrls.dram.rank1.pwrStateTime::ACT    240532250                       # Time in different power states (Tick)
system.mem_ctrls.dram.rank1.pwrStateTime::ACT_PDN            0                       # Time in different power states (Tick)
system.mem_ctrls.power_state.pwrStateResidencyTicks::UNDEFINED 391201542500                       # Cumulative time (in ticks) in various power states (Tick)
system.membus.transDist::ReadResp                4174                       # Transaction distribution (Count)
system.membus.transDist::WritebackDirty           517                       # Transaction distribution (Count)
system.membus.transDist::WritebackClean          1359                       # Transaction distribution (Count)
system.membus.transDist::CleanEvict              1336                       # Transaction distribution (Count)
system.membus.transDist::UpgradeReq                 1                       # Transaction distribution (Count)
system.membus.transDist::ReadExReq                572                       # Transaction distribution (Count)
system.membus.transDist::ReadExResp               572                       # Transaction distribution (Count)
system.membus.transDist::ReadCleanReq            1870                       # Transaction distribution (Count)
system.membus.transDist::ReadSharedReq           2305                       # Transaction distribution (Count)
system.membus.pktCount_system.cpu.icache.mem_side_port::system.mem_ctrls.port         5097                       # Packet count per connected requestor and responder (Count)
system.membus.pktCount_system.cpu.icache.mem_side_port::total         5097                       # Packet count per connected requestor and responder (Count)
system.membus.pktCount_system.cpu.dcache.mem_side_port::system.mem_ctrls.port         7608                       # Packet count per connected requestor and responder (Count)
system.membus.pktCount_system.cpu.dcache.mem_side_port::total         7608                       # Packet count per connected requestor and responder (Count)
system.membus.pktCount::total                   12705                       # Packet count per connected requestor and responder (Count)
system.membus.pktSize_system.cpu.icache.mem_side_port::system.mem_ctrls.port       206528                       # Cumulative packet size per connected requestor and responder (Byte)
system.membus.pktSize_system.cpu.icache.mem_side_port::total       206528                       # Cumulative packet size per connected requestor and responder (Byte)
system.membus.pktSize_system.cpu.dcache.mem_side_port::system.mem_ctrls.port       217216                       # Cumulative packet size per connected requestor and responder (Byte)
system.membus.pktSize_system.cpu.dcache.mem_side_port::total       217216                       # Cumulative packet size per connected requestor and responder (Byte)
system.membus.pktSize::total                   423744                       # Cumulative packet size per connected requestor and responder (Byte)
system.membus.snoops                                1                       # Total snoops (Count)
system.membus.snoopTraffic                         64                       # Total snoop traffic (Byte)
system.membus.snoopFanout::samples               4748                       # Request fanout histogram (Count)
system.membus.snoopFanout::mean              0.001896                       # Request fanout histogram (Count)
system.membus.snoopFanout::stdev             0.043501                       # Request fanout histogram (Count)
system.membus.snoopFanout::underflows               0      0.00%      0.00% # Request fanout histogram (Count)
system.membus.snoopFanout::0                     4739     99.81%     99.81% # Request fanout histogram (Count)
system.membus.snoopFanout::1                        9      0.19%    100.00% # Request fanout histogram (Count)
system.membus.snoopFanout::2                        0      0.00%    100.00% # Request fanout histogram (Count)
system.membus.snoopFanout::3                        0      0.00%    100.00% # Request fanout histogram (Count)
system.membus.snoopFanout::4                        0      0.00%    100.00% # Request fanout histogram (Count)
system.membus.snoopFanout::overflows                0      0.00%    100.00% # Request fanout histogram (Count)
system.membus.snoopFanout::min_value                0                       # Request fanout histogram (Count)
system.membus.snoopFanout::max_value                1                       # Request fanout histogram (Count)
system.membus.snoopFanout::total                 4748                       # Request fanout histogram (Count)
system.membus.power_state.pwrStateResidencyTicks::UNDEFINED 391201542500                       # Cumulative time (in ticks) in various power states (Tick)
system.membus.reqLayer2.occupancy            16312000                       # Layer occupancy (ticks) (Tick)
system.membus.reqLayer2.utilization               0.0                       # Layer utilization (Ratio)
system.membus.respLayer1.occupancy            9797250                       # Layer occupancy (ticks) (Tick)
system.membus.respLayer1.utilization              0.0                       # Layer utilization (Ratio)
system.membus.respLayer2.occupancy           15223750                       # Layer occupancy (ticks) (Tick)
system.membus.respLayer2.utilization              0.0                       # Layer utilization (Ratio)
system.membus.snoop_filter.totRequests           7960                       # Total number of requests made to the snoop filter. (Count)
system.membus.snoop_filter.hitSingleRequests         3215                       # Number of requests hitting in the snoop filter with a single holder of the requested data. (Count)
system.membus.snoop_filter.hitMultiRequests            6                       # Number of requests hitting in the snoop filter with multiple (>1) holders of the requested data. (Count)
system.membus.snoop_filter.totSnoops                0                       # Total number of snoops made to the snoop filter. (Count)
system.membus.snoop_filter.hitSingleSnoops            0                       # Number of snoops hitting in the snoop filter with a single holder of the requested data. (Count)
system.membus.snoop_filter.hitMultiSnoops            0                       # Number of snoops hitting in the snoop filter with multiple (>1) holders of the requested data. (Count)
system.voltage_domain.voltage                       1                       # Voltage in Volts (Volt)
system.workload.inst.arm                            0                       # number of arm instructions executed (Count)
system.workload.inst.quiesce                        0                       # number of quiesce instructions executed (Count)

---------- End Simulation Statistics   ----------
