
---------- Begin Simulation Statistics ----------
simSeconds                                   0.423957                       # Number of seconds simulated (Second)
simTicks                                 423956591500                       # Number of ticks simulated (Tick)
finalTick                                423956591500                       # Number of ticks from beginning of simulation (restored from checkpoints and never reset) (Tick)
simFreq                                  1000000000000                       # The number of ticks per simulated second ((Tick/Second))
hostSeconds                                     11.32                       # Real time elapsed on the host (Second)
hostTickRate                              37454505058                       # The number of ticks simulated per host second (ticks/s) ((Tick/Second))
hostMemory                                     671828                       # Number of bytes of host memory used (Byte)
simInsts                                       204932                       # Number of instructions simulated (Count)
simOps                                         378408                       # Number of ops (including micro ops) simulated (Count)
hostInstRate                                    18105                       # Simulator instruction rate (inst/s) ((Count/Second))
hostOpRate                                      33430                       # Simulator op (including micro ops) rate (op/s) ((Count/Second))
system.clk_domain.clock                          1000                       # Clock period in ticks (Tick)
system.cpu.numCycles                           457100                       # Number of cpu cycles simulated (Cycle)
system.cpu.numWorkItemsStarted                      0                       # Number of work items this cpu started (Count)
system.cpu.numWorkItemsCompleted                    0                       # Number of work items this cpu completed (Count)
system.cpu.instsAdded                          600533                       # Number of instructions added to the IQ (excludes non-spec) (Count)
system.cpu.nonSpecInstsAdded                       48                       # Number of non-speculative instructions added to the IQ (Count)
system.cpu.instsIssued                         534795                       # Number of instructions issued (Count)
system.cpu.squashedInstsIssued                   1446                       # Number of squashed instructions issued (Count)
system.cpu.squashedInstsExamined               222134                       # Number of squashed instructions iterated over during squash; mainly for profiling (Count)
system.cpu.squashedOperandsExamined            301301                       # Number of squashed operands that are examined and possibly removed from graph (Count)
system.cpu.squashedNonSpecRemoved                   3                       # Number of squashed non-spec instructions that were removed (Count)
system.cpu.numIssuedDist::samples              362707                       # Number of insts issued each cycle (Count)
system.cpu.numIssuedDist::mean               1.474455                       # Number of insts issued each cycle (Count)
system.cpu.numIssuedDist::stdev              2.208189                       # Number of insts issued each cycle (Count)
system.cpu.numIssuedDist::underflows                0      0.00%      0.00% # Number of insts issued each cycle (Count)
system.cpu.numIssuedDist::0                    216323     59.64%     59.64% # Number of insts issued each cycle (Count)
system.cpu.numIssuedDist::1                     27499      7.58%     67.22% # Number of insts issued each cycle (Count)
system.cpu.numIssuedDist::2                     25902      7.14%     74.36% # Number of insts issued each cycle (Count)
system.cpu.numIssuedDist::3                     20386      5.62%     79.98% # Number of insts issued each cycle (Count)
system.cpu.numIssuedDist::4                     19772      5.45%     85.44% # Number of insts issued each cycle (Count)
system.cpu.numIssuedDist::5                     18749      5.17%     90.61% # Number of insts issued each cycle (Count)
system.cpu.numIssuedDist::6                     21602      5.96%     96.56% # Number of insts issued each cycle (Count)
system.cpu.numIssuedDist::7                      7903      2.18%     98.74% # Number of insts issued each cycle (Count)
system.cpu.numIssuedDist::8                      4571      1.26%    100.00% # Number of insts issued each cycle (Count)
system.cpu.numIssuedDist::overflows                 0      0.00%    100.00% # Number of insts issued each cycle (Count)
system.cpu.numIssuedDist::min_value                 0                       # Number of insts issued each cycle (Count)
system.cpu.numIssuedDist::max_value                 8                       # Number of insts issued each cycle (Count)
system.cpu.numIssuedDist::total                362707                       # Number of insts issued each cycle (Count)
system.cpu.statFuBusy::No_OpClass                   0      0.00%      0.00% # attempts to use FU when none available (Count)
system.cpu.statFuBusy::IntAlu                   10420     89.89%     89.89% # attempts to use FU when none available (Count)
system.cpu.statFuBusy::IntMult                      0      0.00%     89.89% # attempts to use FU when none available (Count)
system.cpu.statFuBusy::IntDiv                       0      0.00%     89.89% # attempts to use FU when none available (Count)
system.cpu.statFuBusy::FloatAdd                     0      0.00%     89.89% # attempts to use FU when none available (Count)
system.cpu.statFuBusy::FloatCmp                     0      0.00%     89.89% # attempts to use FU when none available (Count)
system.cpu.statFuBusy::FloatCvt                     0      0.00%     89.89% # attempts to use FU when none available (Count)
system.cpu.statFuBusy::FloatMult                    0      0.00%     89.89% # attempts to use FU when none available (Count)
system.cpu.statFuBusy::FloatMultAcc                 0      0.00%     89.89% # attempts to use FU when none available (Count)
system.cpu.statFuBusy::FloatDiv                     0      0.00%     89.89% # attempts to use FU when none available (Count)
system.cpu.statFuBusy::FloatMisc                    0      0.00%     89.89% # attempts to use FU when none available (Count)
system.cpu.statFuBusy::FloatSqrt                    0      0.00%     89.89% # attempts to use FU when none available (Count)
system.cpu.statFuBusy::SimdAdd                      1      0.01%     89.90% # attempts to use FU when none available (Count)
system.cpu.statFuBusy::SimdAddAcc                   0      0.00%     89.90% # attempts to use FU when none available (Count)
system.cpu.statFuBusy::SimdAlu                     12      0.10%     90.00% # attempts to use FU when none available (Count)
system.cpu.statFuBusy::SimdCmp                      0      0.00%     90.00% # attempts to use FU when none available (Count)
system.cpu.statFuBusy::SimdCvt                     13      0.11%     90.11% # attempts to use FU when none available (Count)
system.cpu.statFuBusy::SimdMisc                     3      0.03%     90.14% # attempts to use FU when none available (Count)
system.cpu.statFuBusy::SimdMult                     0      0.00%     90.14% # attempts to use FU when none available (Count)
system.cpu.statFuBusy::SimdMultAcc                  0      0.00%     90.14% # attempts to use FU when none available (Count)
system.cpu.statFuBusy::SimdShift                    2      0.02%     90.16% # attempts to use FU when none available (Count)
system.cpu.statFuBusy::SimdShiftAcc                 0      0.00%     90.16% # attempts to use FU when none available (Count)
system.cpu.statFuBusy::SimdDiv                      0      0.00%     90.16% # attempts to use FU when none available (Count)
system.cpu.statFuBusy::SimdSqrt                     0      0.00%     90.16% # attempts to use FU when none available (Count)
system.cpu.statFuBusy::SimdFloatAdd                 0      0.00%     90.16% # attempts to use FU when none available (Count)
system.cpu.statFuBusy::SimdFloatAlu                 0      0.00%     90.16% # attempts to use FU when none available (Count)
system.cpu.statFuBusy::SimdFloatCmp                 0      0.00%     90.16% # attempts to use FU when none available (Count)
system.cpu.statFuBusy::SimdFloatCvt                 0      0.00%     90.16% # attempts to use FU when none available (Count)
system.cpu.statFuBusy::SimdFloatDiv                 0      0.00%     90.16% # attempts to use FU when none available (Count)
system.cpu.statFuBusy::SimdFloatMisc                0      0.00%     90.16% # attempts to use FU when none available (Count)
system.cpu.statFuBusy::SimdFloatMult                0      0.00%     90.16% # attempts to use FU when none available (Count)
system.cpu.statFuBusy::SimdFloatMultAcc             0      0.00%     90.16% # attempts to use FU when none available (Count)
system.cpu.statFuBusy::SimdFloatSqrt                0      0.00%     90.16% # attempts to use FU when none available (Count)
system.cpu.statFuBusy::SimdReduceAdd                0      0.00%     90.16% # attempts to use FU when none available (Count)
system.cpu.statFuBusy::SimdReduceAlu                0      0.00%     90.16% # attempts to use FU when none available (Count)
system.cpu.statFuBusy::SimdReduceCmp                0      0.00%     90.16% # attempts to use FU when none available (Count)
system.cpu.statFuBusy::SimdFloatReduceAdd            0      0.00%     90.16% # attempts to use FU when none available (Count)
system.cpu.statFuBusy::SimdFloatReduceCmp            0      0.00%     90.16% # attempts to use FU when none available (Count)
system.cpu.statFuBusy::SimdAes                      0      0.00%     90.16% # attempts to use FU when none available (Count)
system.cpu.statFuBusy::SimdAesMix                   0      0.00%     90.16% # attempts to use FU when none available (Count)
system.cpu.statFuBusy::SimdSha1Hash                 0      0.00%     90.16% # attempts to use FU when none available (Count)
system.cpu.statFuBusy::SimdSha1Hash2                0      0.00%     90.16% # attempts to use FU when none available (Count)
system.cpu.statFuBusy::SimdSha256Hash               0      0.00%     90.16% # attempts to use FU when none available (Count)
system.cpu.statFuBusy::SimdSha256Hash2              0      0.00%     90.16% # attempts to use FU when none available (Count)
system.cpu.statFuBusy::SimdShaSigma2                0      0.00%     90.16% # attempts to use FU when none available (Count)
system.cpu.statFuBusy::SimdShaSigma3                0      0.00%     90.16% # attempts to use FU when none available (Count)
system.cpu.statFuBusy::SimdPredAlu                  0      0.00%     90.16% # attempts to use FU when none available (Count)
system.cpu.statFuBusy::MemRead                    653      5.63%     95.79% # attempts to use FU when none available (Count)
system.cpu.statFuBusy::MemWrite                   385      3.32%     99.11% # attempts to use FU when none available (Count)
system.cpu.statFuBusy::FloatMemRead                32      0.28%     99.39% # attempts to use FU when none available (Count)
system.cpu.statFuBusy::FloatMemWrite               71      0.61%    100.00% # attempts to use FU when none available (Count)
system.cpu.statFuBusy::IprAccess                    0      0.00%    100.00% # attempts to use FU when none available (Count)
system.cpu.statFuBusy::InstPrefetch                 0      0.00%    100.00% # attempts to use FU when none available (Count)
system.cpu.statIssuedInstType_0::No_OpClass         3935      0.74%      0.74% # Number of instructions issued per FU type, per thread (Count)
system.cpu.statIssuedInstType_0::IntAlu        431514     80.69%     81.42% # Number of instructions issued per FU type, per thread (Count)
system.cpu.statIssuedInstType_0::IntMult          355      0.07%     81.49% # Number of instructions issued per FU type, per thread (Count)
system.cpu.statIssuedInstType_0::IntDiv          1722      0.32%     81.81% # Number of instructions issued per FU type, per thread (Count)
system.cpu.statIssuedInstType_0::FloatAdd          667      0.12%     81.94% # Number of instructions issued per FU type, per thread (Count)
system.cpu.statIssuedInstType_0::FloatCmp            0      0.00%     81.94% # Number of instructions issued per FU type, per thread (Count)
system.cpu.statIssuedInstType_0::FloatCvt           80      0.01%     81.95% # Number of instructions issued per FU type, per thread (Count)
system.cpu.statIssuedInstType_0::FloatMult            0      0.00%     81.95% # Number of instructions issued per FU type, per thread (Count)
system.cpu.statIssuedInstType_0::FloatMultAcc            0      0.00%     81.95% # Number of instructions issued per FU type, per thread (Count)
system.cpu.statIssuedInstType_0::FloatDiv            0      0.00%     81.95% # Number of instructions issued per FU type, per thread (Count)
system.cpu.statIssuedInstType_0::FloatMisc            0      0.00%     81.95% # Number of instructions issued per FU type, per thread (Count)
system.cpu.statIssuedInstType_0::FloatSqrt            0      0.00%     81.95% # Number of instructions issued per FU type, per thread (Count)
system.cpu.statIssuedInstType_0::SimdAdd          426      0.08%     82.03% # Number of instructions issued per FU type, per thread (Count)
system.cpu.statIssuedInstType_0::SimdAddAcc            0      0.00%     82.03% # Number of instructions issued per FU type, per thread (Count)
system.cpu.statIssuedInstType_0::SimdAlu         1240      0.23%     82.26% # Number of instructions issued per FU type, per thread (Count)
system.cpu.statIssuedInstType_0::SimdCmp            0      0.00%     82.26% # Number of instructions issued per FU type, per thread (Count)
system.cpu.statIssuedInstType_0::SimdCvt         1304      0.24%     82.51% # Number of instructions issued per FU type, per thread (Count)
system.cpu.statIssuedInstType_0::SimdMisc         1609      0.30%     82.81% # Number of instructions issued per FU type, per thread (Count)
system.cpu.statIssuedInstType_0::SimdMult            0      0.00%     82.81% # Number of instructions issued per FU type, per thread (Count)
system.cpu.statIssuedInstType_0::SimdMultAcc            0      0.00%     82.81% # Number of instructions issued per FU type, per thread (Count)
system.cpu.statIssuedInstType_0::SimdShift          280      0.05%     82.86% # Number of instructions issued per FU type, per thread (Count)
system.cpu.statIssuedInstType_0::SimdShiftAcc            0      0.00%     82.86% # Number of instructions issued per FU type, per thread (Count)
system.cpu.statIssuedInstType_0::SimdDiv            0      0.00%     82.86% # Number of instructions issued per FU type, per thread (Count)
system.cpu.statIssuedInstType_0::SimdSqrt            0      0.00%     82.86% # Number of instructions issued per FU type, per thread (Count)
system.cpu.statIssuedInstType_0::SimdFloatAdd            0      0.00%     82.86% # Number of instructions issued per FU type, per thread (Count)
system.cpu.statIssuedInstType_0::SimdFloatAlu            0      0.00%     82.86% # Number of instructions issued per FU type, per thread (Count)
system.cpu.statIssuedInstType_0::SimdFloatCmp            0      0.00%     82.86% # Number of instructions issued per FU type, per thread (Count)
system.cpu.statIssuedInstType_0::SimdFloatCvt            0      0.00%     82.86% # Number of instructions issued per FU type, per thread (Count)
system.cpu.statIssuedInstType_0::SimdFloatDiv            0      0.00%     82.86% # Number of instructions issued per FU type, per thread (Count)
system.cpu.statIssuedInstType_0::SimdFloatMisc            0      0.00%     82.86% # Number of instructions issued per FU type, per thread (Count)
system.cpu.statIssuedInstType_0::SimdFloatMult            0      0.00%     82.86% # Number of instructions issued per FU type, per thread (Count)
system.cpu.statIssuedInstType_0::SimdFloatMultAcc            0      0.00%     82.86% # Number of instructions issued per FU type, per thread (Count)
system.cpu.statIssuedInstType_0::SimdFloatSqrt            0      0.00%     82.86% # Number of instructions issued per FU type, per thread (Count)
system.cpu.statIssuedInstType_0::SimdReduceAdd            0      0.00%     82.86% # Number of instructions issued per FU type, per thread (Count)
system.cpu.statIssuedInstType_0::SimdReduceAlu            0      0.00%     82.86% # Number of instructions issued per FU type, per thread (Count)
system.cpu.statIssuedInstType_0::SimdReduceCmp            0      0.00%     82.86% # Number of instructions issued per FU type, per thread (Count)
system.cpu.statIssuedInstType_0::SimdFloatReduceAdd            0      0.00%     82.86% # Number of instructions issued per FU type, per thread (Count)
system.cpu.statIssuedInstType_0::SimdFloatReduceCmp            0      0.00%     82.86% # Number of instructions issued per FU type, per thread (Count)
system.cpu.statIssuedInstType_0::SimdAes            0      0.00%     82.86% # Number of instructions issued per FU type, per thread (Count)
system.cpu.statIssuedInstType_0::SimdAesMix            0      0.00%     82.86% # Number of instructions issued per FU type, per thread (Count)
system.cpu.statIssuedInstType_0::SimdSha1Hash            0      0.00%     82.86% # Number of instructions issued per FU type, per thread (Count)
system.cpu.statIssuedInstType_0::SimdSha1Hash2            0      0.00%     82.86% # Number of instructions issued per FU type, per thread (Count)
system.cpu.statIssuedInstType_0::SimdSha256Hash            0      0.00%     82.86% # Number of instructions issued per FU type, per thread (Count)
system.cpu.statIssuedInstType_0::SimdSha256Hash2            0      0.00%     82.86% # Number of instructions issued per FU type, per thread (Count)
system.cpu.statIssuedInstType_0::SimdShaSigma2            0      0.00%     82.86% # Number of instructions issued per FU type, per thread (Count)
system.cpu.statIssuedInstType_0::SimdShaSigma3            0      0.00%     82.86% # Number of instructions issued per FU type, per thread (Count)
system.cpu.statIssuedInstType_0::SimdPredAlu            0      0.00%     82.86% # Number of instructions issued per FU type, per thread (Count)
system.cpu.statIssuedInstType_0::MemRead        67808     12.68%     95.54% # Number of instructions issued per FU type, per thread (Count)
system.cpu.statIssuedInstType_0::MemWrite        20150      3.77%     99.31% # Number of instructions issued per FU type, per thread (Count)
system.cpu.statIssuedInstType_0::FloatMemRead         1913      0.36%     99.66% # Number of instructions issued per FU type, per thread (Count)
system.cpu.statIssuedInstType_0::FloatMemWrite         1792      0.34%    100.00% # Number of instructions issued per FU type, per thread (Count)
system.cpu.statIssuedInstType_0::IprAccess            0      0.00%    100.00% # Number of instructions issued per FU type, per thread (Count)
system.cpu.statIssuedInstType_0::InstPrefetch            0      0.00%    100.00% # Number of instructions issued per FU type, per thread (Count)
system.cpu.statIssuedInstType_0::total         534795                       # Number of instructions issued per FU type, per thread (Count)
system.cpu.issueRate                         1.169974                       # Inst issue rate ((Count/Cycle))
system.cpu.fuBusy                               11592                       # FU busy when requested (Count)
system.cpu.fuBusyRate                        0.021676                       # FU busy rate (busy events/executed inst) ((Count/Count))
system.cpu.intInstQueueReads                  1425425                       # Number of integer instruction queue reads (Count)
system.cpu.intInstQueueWrites                  807944                       # Number of integer instruction queue writes (Count)
system.cpu.intInstQueueWakeupAccesses          507883                       # Number of integer instruction queue wakeup accesses (Count)
system.cpu.fpInstQueueReads                     19909                       # Number of floating instruction queue reads (Count)
system.cpu.fpInstQueueWrites                    14863                       # Number of floating instruction queue writes (Count)
system.cpu.fpInstQueueWakeupAccesses             9416                       # Number of floating instruction queue wakeup accesses (Count)
system.cpu.vecInstQueueReads                        0                       # Number of vector instruction queue reads (Count)
system.cpu.vecInstQueueWrites                       0                       # Number of vector instruction queue writes (Count)
system.cpu.vecInstQueueWakeupAccesses               0                       # Number of vector instruction queue wakeup accesses (Count)
system.cpu.intAluAccesses                      532441                       # Number of integer alu accesses (Count)
system.cpu.fpAluAccesses                        10011                       # Number of floating point alu accesses (Count)
system.cpu.vecAluAccesses                           0                       # Number of vector alu accesses (Count)
system.cpu.numInsts                            524426                       # Number of executed instructions (Count)
system.cpu.numLoadInsts                         66361                       # Number of load instructions executed (Count)
system.cpu.numSquashedInsts                     10368                       # Number of squashed instructions skipped in execute (Count)
system.cpu.numSwp                                   0                       # Number of swp insts executed (Count)
system.cpu.numNop                                   0                       # Number of nop insts executed (Count)
system.cpu.numRefs                              87871                       # Number of memory reference insts executed (Count)
system.cpu.numBranches                          57253                       # Number of branches executed (Count)
system.cpu.numStoreInsts                        21510                       # Number of stores executed (Count)
system.cpu.numRate                           1.147289                       # Inst execution rate ((Count/Cycle))
system.cpu.timesIdled                            1214                       # Number of times that the entire CPU went into an idle state and unscheduled itself (Count)
system.cpu.idleCycles                           94393                       # Total number of cycles that the CPU has spent unscheduled due to idling (Cycle)
system.cpu.quiesceCycles                    847456084                       # Total number of cycles that CPU has spent quiesced or waiting for an interrupt (Cycle)
system.cpu.committedInsts                      204932                       # Number of Instructions Simulated (Count)
system.cpu.committedOps                        378408                       # Number of Ops (including micro ops) Simulated (Count)
system.cpu.cpi                               2.230496                       # CPI: Cycles Per Instruction ((Cycle/Count))
system.cpu.totalCpi                          2.230496                       # CPI: Total CPI of All Threads ((Cycle/Count))
system.cpu.ipc                               0.448331                       # IPC: Instructions Per Cycle ((Count/Cycle))
system.cpu.totalIpc                          0.448331                       # IPC: Total IPC of All Threads ((Count/Cycle))
system.cpu.intRegfileReads                     752296                       # Number of integer regfile reads (Count)
system.cpu.intRegfileWrites                    432853                       # Number of integer regfile writes (Count)
system.cpu.fpRegfileReads                       13396                       # Number of floating regfile reads (Count)
system.cpu.fpRegfileWrites                       7027                       # Number of floating regfile writes (Count)
system.cpu.ccRegfileReads                      281139                       # number of cc regfile reads (Count)
system.cpu.ccRegfileWrites                     189000                       # number of cc regfile writes (Count)
system.cpu.miscRegfileReads                    214568                       # number of misc regfile reads (Count)
system.cpu.miscRegfileWrites                       45                       # number of misc regfile writes (Count)
system.cpu.MemDepUnit__0.insertedLoads          73235                       # Number of loads inserted to the mem dependence unit. (Count)
system.cpu.MemDepUnit__0.insertedStores         23924                       # Number of stores inserted to the mem dependence unit. (Count)
system.cpu.MemDepUnit__0.conflictingLoads          738                       # Number of conflicting loads. (Count)
system.cpu.MemDepUnit__0.conflictingStores          574                       # Number of conflicting stores. (Count)
system.cpu.MemDepUnit__1.insertedLoads              0                       # Number of loads inserted to the mem dependence unit. (Count)
system.cpu.MemDepUnit__1.insertedStores             0                       # Number of stores inserted to the mem dependence unit. (Count)
system.cpu.MemDepUnit__1.conflictingLoads            0                       # Number of conflicting loads. (Count)
system.cpu.MemDepUnit__1.conflictingStores            0                       # Number of conflicting stores. (Count)
system.cpu.MemDepUnit__2.insertedLoads              0                       # Number of loads inserted to the mem dependence unit. (Count)
system.cpu.MemDepUnit__2.insertedStores             0                       # Number of stores inserted to the mem dependence unit. (Count)
system.cpu.MemDepUnit__2.conflictingLoads            0                       # Number of conflicting loads. (Count)
system.cpu.MemDepUnit__2.conflictingStores            0                       # Number of conflicting stores. (Count)
system.cpu.MemDepUnit__3.insertedLoads              0                       # Number of loads inserted to the mem dependence unit. (Count)
system.cpu.MemDepUnit__3.insertedStores             0                       # Number of stores inserted to the mem dependence unit. (Count)
system.cpu.MemDepUnit__3.conflictingLoads            0                       # Number of conflicting loads. (Count)
system.cpu.MemDepUnit__3.conflictingStores            0                       # Number of conflicting stores. (Count)
system.cpu.branchPred.lookups                   87831                       # Number of BP lookups (Count)
system.cpu.branchPred.condPredicted             71722                       # Number of conditional branches predicted (Count)
system.cpu.branchPred.condIncorrect              5774                       # Number of conditional branches incorrect (Count)
system.cpu.branchPred.BTBLookups                34670                       # Number of BTB lookups (Count)
system.cpu.branchPred.BTBHits                   32675                       # Number of BTB hits (Count)
system.cpu.branchPred.BTBHitRatio            0.942457                       # BTB Hit Ratio (Ratio)
system.cpu.branchPred.RASUsed                    2117                       # Number of times the RAS was used to get a target. (Count)
system.cpu.branchPred.RASIncorrect                  2                       # Number of incorrect RAS predictions. (Count)
system.cpu.branchPred.indirectLookups            2011                       # Number of indirect predictor lookups. (Count)
system.cpu.branchPred.indirectHits                615                       # Number of indirect target hits. (Count)
system.cpu.branchPred.indirectMisses             1396                       # Number of indirect misses. (Count)
system.cpu.branchPred.indirectMispredicted          318                       # Number of mispredicted indirect branches. (Count)
system.cpu.commit.commitSquashedInsts          219733                       # The number of squashed insts skipped by commit (Count)
system.cpu.commit.commitNonSpecStalls              45                       # The number of times commit has been forced to stall to communicate backwards (Count)
system.cpu.commit.branchMispredicts              5341                       # The number of times a branch was mispredicted (Count)
system.cpu.commit.numCommittedDist::samples       330502                       # Number of insts commited each cycle (Count)
system.cpu.commit.numCommittedDist::mean     1.144949                       # Number of insts commited each cycle (Count)
system.cpu.commit.numCommittedDist::stdev     2.329874                       # Number of insts commited each cycle (Count)
system.cpu.commit.numCommittedDist::underflows            0      0.00%      0.00% # Number of insts commited each cycle (Count)
system.cpu.commit.numCommittedDist::0          233295     70.59%     70.59% # Number of insts commited each cycle (Count)
system.cpu.commit.numCommittedDist::1           28633      8.66%     79.25% # Number of insts commited each cycle (Count)
system.cpu.commit.numCommittedDist::2           11238      3.40%     82.65% # Number of insts commited each cycle (Count)
system.cpu.commit.numCommittedDist::3           18200      5.51%     88.16% # Number of insts commited each cycle (Count)
system.cpu.commit.numCommittedDist::4            5501      1.66%     89.82% # Number of insts commited each cycle (Count)
system.cpu.commit.numCommittedDist::5            3192      0.97%     90.79% # Number of insts commited each cycle (Count)
system.cpu.commit.numCommittedDist::6            2951      0.89%     91.68% # Number of insts commited each cycle (Count)
system.cpu.commit.numCommittedDist::7            2907      0.88%     92.56% # Number of insts commited each cycle (Count)
system.cpu.commit.numCommittedDist::8           24585      7.44%    100.00% # Number of insts commited each cycle (Count)
system.cpu.commit.numCommittedDist::overflows            0      0.00%    100.00% # Number of insts commited each cycle (Count)
system.cpu.commit.numCommittedDist::min_value            0                       # Number of insts commited each cycle (Count)
system.cpu.commit.numCommittedDist::max_value            8                       # Number of insts commited each cycle (Count)
system.cpu.commit.numCommittedDist::total       330502                       # Number of insts commited each cycle (Count)
system.cpu.commit.instsCommitted               204932                       # Number of instructions committed (Count)
system.cpu.commit.opsCommitted                 378408                       # Number of ops (including micro ops) committed (Count)
system.cpu.commit.memRefs                       66513                       # Number of memory references committed (Count)
system.cpu.commit.loads                         48035                       # Number of loads committed (Count)
system.cpu.commit.amos                              0                       # Number of atomic instructions committed (Count)
system.cpu.commit.membars                           0                       # Number of memory barriers committed (Count)
system.cpu.commit.branches                      45256                       # Number of branches committed (Count)
system.cpu.commit.vectorInstructions                0                       # Number of committed Vector instructions. (Count)
system.cpu.commit.floating                       7701                       # Number of committed floating point instructions. (Count)
system.cpu.commit.integer                      371586                       # Number of committed integer instructions. (Count)
system.cpu.commit.functionCalls                  1310                       # Number of function calls committed. (Count)
system.cpu.commit.committedInstType_0::No_OpClass         1965      0.52%      0.52% # Class of committed instruction (Count)
system.cpu.commit.committedInstType_0::IntAlu       303953     80.32%     80.84% # Class of committed instruction (Count)
system.cpu.commit.committedInstType_0::IntMult          322      0.09%     80.93% # Class of committed instruction (Count)
system.cpu.commit.committedInstType_0::IntDiv         1315      0.35%     81.28% # Class of committed instruction (Count)
system.cpu.commit.committedInstType_0::FloatAdd          498      0.13%     81.41% # Class of committed instruction (Count)
system.cpu.commit.committedInstType_0::FloatCmp            0      0.00%     81.41% # Class of committed instruction (Count)
system.cpu.commit.committedInstType_0::FloatCvt           80      0.02%     81.43% # Class of committed instruction (Count)
system.cpu.commit.committedInstType_0::FloatMult            0      0.00%     81.43% # Class of committed instruction (Count)
system.cpu.commit.committedInstType_0::FloatMultAcc            0      0.00%     81.43% # Class of committed instruction (Count)
system.cpu.commit.committedInstType_0::FloatDiv            0      0.00%     81.43% # Class of committed instruction (Count)
system.cpu.commit.committedInstType_0::FloatMisc            0      0.00%     81.43% # Class of committed instruction (Count)
system.cpu.commit.committedInstType_0::FloatSqrt            0      0.00%     81.43% # Class of committed instruction (Count)
system.cpu.commit.committedInstType_0::SimdAdd          314      0.08%     81.51% # Class of committed instruction (Count)
system.cpu.commit.committedInstType_0::SimdAddAcc            0      0.00%     81.51% # Class of committed instruction (Count)
system.cpu.commit.committedInstType_0::SimdAlu          928      0.25%     81.76% # Class of committed instruction (Count)
system.cpu.commit.committedInstType_0::SimdCmp            0      0.00%     81.76% # Class of committed instruction (Count)
system.cpu.commit.committedInstType_0::SimdCvt          978      0.26%     82.02% # Class of committed instruction (Count)
system.cpu.commit.committedInstType_0::SimdMisc         1446      0.38%     82.40% # Class of committed instruction (Count)
system.cpu.commit.committedInstType_0::SimdMult            0      0.00%     82.40% # Class of committed instruction (Count)
system.cpu.commit.committedInstType_0::SimdMultAcc            0      0.00%     82.40% # Class of committed instruction (Count)
system.cpu.commit.committedInstType_0::SimdShift           96      0.03%     82.42% # Class of committed instruction (Count)
system.cpu.commit.committedInstType_0::SimdShiftAcc            0      0.00%     82.42% # Class of committed instruction (Count)
system.cpu.commit.committedInstType_0::SimdDiv            0      0.00%     82.42% # Class of committed instruction (Count)
system.cpu.commit.committedInstType_0::SimdSqrt            0      0.00%     82.42% # Class of committed instruction (Count)
system.cpu.commit.committedInstType_0::SimdFloatAdd            0      0.00%     82.42% # Class of committed instruction (Count)
system.cpu.commit.committedInstType_0::SimdFloatAlu            0      0.00%     82.42% # Class of committed instruction (Count)
system.cpu.commit.committedInstType_0::SimdFloatCmp            0      0.00%     82.42% # Class of committed instruction (Count)
system.cpu.commit.committedInstType_0::SimdFloatCvt            0      0.00%     82.42% # Class of committed instruction (Count)
system.cpu.commit.committedInstType_0::SimdFloatDiv            0      0.00%     82.42% # Class of committed instruction (Count)
system.cpu.commit.committedInstType_0::SimdFloatMisc            0      0.00%     82.42% # Class of committed instruction (Count)
system.cpu.commit.committedInstType_0::SimdFloatMult            0      0.00%     82.42% # Class of committed instruction (Count)
system.cpu.commit.committedInstType_0::SimdFloatMultAcc            0      0.00%     82.42% # Class of committed instruction (Count)
system.cpu.commit.committedInstType_0::SimdFloatSqrt            0      0.00%     82.42% # Class of committed instruction (Count)
system.cpu.commit.committedInstType_0::SimdReduceAdd            0      0.00%     82.42% # Class of committed instruction (Count)
system.cpu.commit.committedInstType_0::SimdReduceAlu            0      0.00%     82.42% # Class of committed instruction (Count)
system.cpu.commit.committedInstType_0::SimdReduceCmp            0      0.00%     82.42% # Class of committed instruction (Count)
system.cpu.commit.committedInstType_0::SimdFloatReduceAdd            0      0.00%     82.42% # Class of committed instruction (Count)
system.cpu.commit.committedInstType_0::SimdFloatReduceCmp            0      0.00%     82.42% # Class of committed instruction (Count)
system.cpu.commit.committedInstType_0::SimdAes            0      0.00%     82.42% # Class of committed instruction (Count)
system.cpu.commit.committedInstType_0::SimdAesMix            0      0.00%     82.42% # Class of committed instruction (Count)
system.cpu.commit.committedInstType_0::SimdSha1Hash            0      0.00%     82.42% # Class of committed instruction (Count)
system.cpu.commit.committedInstType_0::SimdSha1Hash2            0      0.00%     82.42% # Class of committed instruction (Count)
system.cpu.commit.committedInstType_0::SimdSha256Hash            0      0.00%     82.42% # Class of committed instruction (Count)
system.cpu.commit.committedInstType_0::SimdSha256Hash2            0      0.00%     82.42% # Class of committed instruction (Count)
system.cpu.commit.committedInstType_0::SimdShaSigma2            0      0.00%     82.42% # Class of committed instruction (Count)
system.cpu.commit.committedInstType_0::SimdShaSigma3            0      0.00%     82.42% # Class of committed instruction (Count)
system.cpu.commit.committedInstType_0::SimdPredAlu            0      0.00%     82.42% # Class of committed instruction (Count)
system.cpu.commit.committedInstType_0::MemRead        46833     12.38%     94.80% # Class of committed instruction (Count)
system.cpu.commit.committedInstType_0::MemWrite        16845      4.45%     99.25% # Class of committed instruction (Count)
system.cpu.commit.committedInstType_0::FloatMemRead         1202      0.32%     99.57% # Class of committed instruction (Count)
system.cpu.commit.committedInstType_0::FloatMemWrite         1633      0.43%    100.00% # Class of committed instruction (Count)
system.cpu.commit.committedInstType_0::IprAccess            0      0.00%    100.00% # Class of committed instruction (Count)
system.cpu.commit.committedInstType_0::InstPrefetch            0      0.00%    100.00% # Class of committed instruction (Count)
system.cpu.commit.committedInstType_0::total       378408                       # Class of committed instruction (Count)
system.cpu.commit.commitEligibleSamples         24585                       # number cycles where commit BW limit reached (Cycle)
system.cpu.dcache.demandHits::cpu.data          68037                       # number of demand (read+write) hits (Count)
system.cpu.dcache.demandHits::total             68037                       # number of demand (read+write) hits (Count)
system.cpu.dcache.overallHits::cpu.data         68037                       # number of overall hits (Count)
system.cpu.dcache.overallHits::total            68037                       # number of overall hits (Count)
system.cpu.dcache.demandMisses::cpu.data        12678                       # number of demand (read+write) misses (Count)
system.cpu.dcache.demandMisses::total           12678                       # number of demand (read+write) misses (Count)
system.cpu.dcache.overallMisses::cpu.data        12678                       # number of overall misses (Count)
system.cpu.dcache.overallMisses::total          12678                       # number of overall misses (Count)
system.cpu.dcache.demandMissLatency::cpu.data    638885998                       # number of demand (read+write) miss ticks (Tick)
system.cpu.dcache.demandMissLatency::total    638885998                       # number of demand (read+write) miss ticks (Tick)
system.cpu.dcache.overallMissLatency::cpu.data    638885998                       # number of overall miss ticks (Tick)
system.cpu.dcache.overallMissLatency::total    638885998                       # number of overall miss ticks (Tick)
system.cpu.dcache.demandAccesses::cpu.data        80715                       # number of demand (read+write) accesses (Count)
system.cpu.dcache.demandAccesses::total         80715                       # number of demand (read+write) accesses (Count)
system.cpu.dcache.overallAccesses::cpu.data        80715                       # number of overall (read+write) accesses (Count)
system.cpu.dcache.overallAccesses::total        80715                       # number of overall (read+write) accesses (Count)
system.cpu.dcache.demandMissRate::cpu.data     0.157071                       # miss rate for demand accesses (Ratio)
system.cpu.dcache.demandMissRate::total      0.157071                       # miss rate for demand accesses (Ratio)
system.cpu.dcache.overallMissRate::cpu.data     0.157071                       # miss rate for overall accesses (Ratio)
system.cpu.dcache.overallMissRate::total     0.157071                       # miss rate for overall accesses (Ratio)
system.cpu.dcache.demandAvgMissLatency::cpu.data 50393.279539                       # average overall miss latency ((Cycle/Count))
system.cpu.dcache.demandAvgMissLatency::total 50393.279539                       # average overall miss latency ((Cycle/Count))
system.cpu.dcache.overallAvgMissLatency::cpu.data 50393.279539                       # average overall miss latency ((Cycle/Count))
system.cpu.dcache.overallAvgMissLatency::total 50393.279539                       # average overall miss latency ((Cycle/Count))
system.cpu.dcache.blockedCycles::no_mshrs        12841                       # number of cycles access was blocked (Cycle)
system.cpu.dcache.blockedCycles::no_targets          137                       # number of cycles access was blocked (Cycle)
system.cpu.dcache.blockedCauses::no_mshrs          297                       # number of times access was blocked (Count)
system.cpu.dcache.blockedCauses::no_targets            1                       # number of times access was blocked (Count)
system.cpu.dcache.avgBlocked::no_mshrs      43.235690                       # average number of cycles each access was blocked ((Cycle/Count))
system.cpu.dcache.avgBlocked::no_targets          137                       # average number of cycles each access was blocked ((Cycle/Count))
system.cpu.dcache.writebacks::writebacks          516                       # number of writebacks (Count)
system.cpu.dcache.writebacks::total               516                       # number of writebacks (Count)
system.cpu.dcache.demandMshrHits::cpu.data         9806                       # number of demand (read+write) MSHR hits (Count)
system.cpu.dcache.demandMshrHits::total          9806                       # number of demand (read+write) MSHR hits (Count)
system.cpu.dcache.overallMshrHits::cpu.data         9806                       # number of overall MSHR hits (Count)
system.cpu.dcache.overallMshrHits::total         9806                       # number of overall MSHR hits (Count)
system.cpu.dcache.demandMshrMisses::cpu.data         2872                       # number of demand (read+write) MSHR misses (Count)
system.cpu.dcache.demandMshrMisses::total         2872                       # number of demand (read+write) MSHR misses (Count)
system.cpu.dcache.overallMshrMisses::cpu.data         2872                       # number of overall MSHR misses (Count)
system.cpu.dcache.overallMshrMisses::total         2872                       # number of overall MSHR misses (Count)
system.cpu.dcache.demandMshrMissLatency::cpu.data    172102498                       # number of demand (read+write) MSHR miss ticks (Tick)
system.cpu.dcache.demandMshrMissLatency::total    172102498                       # number of demand (read+write) MSHR miss ticks (Tick)
system.cpu.dcache.overallMshrMissLatency::cpu.data    172102498                       # number of overall MSHR miss ticks (Tick)
system.cpu.dcache.overallMshrMissLatency::total    172102498                       # number of overall MSHR miss ticks (Tick)
system.cpu.dcache.demandMshrMissRate::cpu.data     0.035582                       # mshr miss ratio for demand accesses (Ratio)
system.cpu.dcache.demandMshrMissRate::total     0.035582                       # mshr miss ratio for demand accesses (Ratio)
system.cpu.dcache.overallMshrMissRate::cpu.data     0.035582                       # mshr miss ratio for overall accesses (Ratio)
system.cpu.dcache.overallMshrMissRate::total     0.035582                       # mshr miss ratio for overall accesses (Ratio)
system.cpu.dcache.demandAvgMshrMissLatency::cpu.data 59924.268106                       # average overall mshr miss latency ((Cycle/Count))
system.cpu.dcache.demandAvgMshrMissLatency::total 59924.268106                       # average overall mshr miss latency ((Cycle/Count))
system.cpu.dcache.overallAvgMshrMissLatency::cpu.data 59924.268106                       # average overall mshr miss latency ((Cycle/Count))
system.cpu.dcache.overallAvgMshrMissLatency::total 59924.268106                       # average overall mshr miss latency ((Cycle/Count))
system.cpu.dcache.replacements                   1847                       # number of replacements (Count)
system.cpu.dcache.ReadReq.hits::cpu.data        50147                       # number of ReadReq hits (Count)
system.cpu.dcache.ReadReq.hits::total           50147                       # number of ReadReq hits (Count)
system.cpu.dcache.ReadReq.misses::cpu.data        12090                       # number of ReadReq misses (Count)
system.cpu.dcache.ReadReq.misses::total         12090                       # number of ReadReq misses (Count)
system.cpu.dcache.ReadReq.missLatency::cpu.data    604941500                       # number of ReadReq miss ticks (Tick)
system.cpu.dcache.ReadReq.missLatency::total    604941500                       # number of ReadReq miss ticks (Tick)
system.cpu.dcache.ReadReq.accesses::cpu.data        62237                       # number of ReadReq accesses(hits+misses) (Count)
system.cpu.dcache.ReadReq.accesses::total        62237                       # number of ReadReq accesses(hits+misses) (Count)
system.cpu.dcache.ReadReq.missRate::cpu.data     0.194257                       # miss rate for ReadReq accesses (Ratio)
system.cpu.dcache.ReadReq.missRate::total     0.194257                       # miss rate for ReadReq accesses (Ratio)
system.cpu.dcache.ReadReq.avgMissLatency::cpu.data 50036.517783                       # average ReadReq miss latency ((Tick/Count))
system.cpu.dcache.ReadReq.avgMissLatency::total 50036.517783                       # average ReadReq miss latency ((Tick/Count))
system.cpu.dcache.ReadReq.mshrHits::cpu.data         9800                       # number of ReadReq MSHR hits (Count)
system.cpu.dcache.ReadReq.mshrHits::total         9800                       # number of ReadReq MSHR hits (Count)
system.cpu.dcache.ReadReq.mshrMisses::cpu.data         2290                       # number of ReadReq MSHR misses (Count)
system.cpu.dcache.ReadReq.mshrMisses::total         2290                       # number of ReadReq MSHR misses (Count)
system.cpu.dcache.ReadReq.mshrMissLatency::cpu.data    138999500                       # number of ReadReq MSHR miss ticks (Tick)
system.cpu.dcache.ReadReq.mshrMissLatency::total    138999500                       # number of ReadReq MSHR miss ticks (Tick)
system.cpu.dcache.ReadReq.mshrMissRate::cpu.data     0.036795                       # mshr miss rate for ReadReq accesses (Ratio)
system.cpu.dcache.ReadReq.mshrMissRate::total     0.036795                       # mshr miss rate for ReadReq accesses (Ratio)
system.cpu.dcache.ReadReq.avgMshrMissLatency::cpu.data 60698.471616                       # average ReadReq mshr miss latency ((Tick/Count))
system.cpu.dcache.ReadReq.avgMshrMissLatency::total 60698.471616                       # average ReadReq mshr miss latency ((Tick/Count))
system.cpu.dcache.WriteReq.hits::cpu.data        17890                       # number of WriteReq hits (Count)
system.cpu.dcache.WriteReq.hits::total          17890                       # number of WriteReq hits (Count)
system.cpu.dcache.WriteReq.misses::cpu.data          588                       # number of WriteReq misses (Count)
system.cpu.dcache.WriteReq.misses::total          588                       # number of WriteReq misses (Count)
system.cpu.dcache.WriteReq.missLatency::cpu.data     33944498                       # number of WriteReq miss ticks (Tick)
system.cpu.dcache.WriteReq.missLatency::total     33944498                       # number of WriteReq miss ticks (Tick)
system.cpu.dcache.WriteReq.accesses::cpu.data        18478                       # number of WriteReq accesses(hits+misses) (Count)
system.cpu.dcache.WriteReq.accesses::total        18478                       # number of WriteReq accesses(hits+misses) (Count)
system.cpu.dcache.WriteReq.missRate::cpu.data     0.031822                       # miss rate for WriteReq accesses (Ratio)
system.cpu.dcache.WriteReq.missRate::total     0.031822                       # miss rate for WriteReq accesses (Ratio)
system.cpu.dcache.WriteReq.avgMissLatency::cpu.data 57728.738095                       # average WriteReq miss latency ((Tick/Count))
system.cpu.dcache.WriteReq.avgMissLatency::total 57728.738095                       # average WriteReq miss latency ((Tick/Count))
system.cpu.dcache.WriteReq.mshrHits::cpu.data            6                       # number of WriteReq MSHR hits (Count)
system.cpu.dcache.WriteReq.mshrHits::total            6                       # number of WriteReq MSHR hits (Count)
system.cpu.dcache.WriteReq.mshrMisses::cpu.data          582                       # number of WriteReq MSHR misses (Count)
system.cpu.dcache.WriteReq.mshrMisses::total          582                       # number of WriteReq MSHR misses (Count)
system.cpu.dcache.WriteReq.mshrMissLatency::cpu.data     33102998                       # number of WriteReq MSHR miss ticks (Tick)
system.cpu.dcache.WriteReq.mshrMissLatency::total     33102998                       # number of WriteReq MSHR miss ticks (Tick)
system.cpu.dcache.WriteReq.mshrMissRate::cpu.data     0.031497                       # mshr miss rate for WriteReq accesses (Ratio)
system.cpu.dcache.WriteReq.mshrMissRate::total     0.031497                       # mshr miss rate for WriteReq accesses (Ratio)
system.cpu.dcache.WriteReq.avgMshrMissLatency::cpu.data 56878.003436                       # average WriteReq mshr miss latency ((Tick/Count))
system.cpu.dcache.WriteReq.avgMshrMissLatency::total 56878.003436                       # average WriteReq mshr miss latency ((Tick/Count))
system.cpu.dcache.power_state.pwrStateResidencyTicks::UNDEFINED 423956591500                       # Cumulative time (in ticks) in various power states (Tick)
system.cpu.dcache.tags.tagsInUse          1023.901683                       # Average ticks per tags in use ((Tick/Count))
system.cpu.dcache.tags.totalRefs                70909                       # Total number of references to valid blocks. (Count)
system.cpu.dcache.tags.sampledRefs               2871                       # Sample count of references to valid blocks. (Count)
system.cpu.dcache.tags.avgRefs              24.698363                       # Average number of references to valid blocks. ((Count/Count))
system.cpu.dcache.tags.warmupTick              148000                       # The tick when the warmup percentage was hit. (Tick)
system.cpu.dcache.tags.occupancies::cpu.data  1023.901683                       # Average occupied blocks per tick, per requestor ((Count/Tick))
system.cpu.dcache.tags.avgOccs::cpu.data     0.999904                       # Average percentage of cache occupancy ((Ratio/Tick))
system.cpu.dcache.tags.avgOccs::total        0.999904                       # Average percentage of cache occupancy ((Ratio/Tick))
system.cpu.dcache.tags.occupanciesTaskId::1024         1024                       # Occupied blocks per task id (Count)
system.cpu.dcache.tags.ageTaskId_1024::4         1024                       # Occupied blocks per task id, per block age (Count)
system.cpu.dcache.tags.ratioOccsTaskId::1024            1                       # Ratio of occupied blocks and all blocks, per task id (Ratio)
system.cpu.dcache.tags.tagAccesses             164301                       # Number of tag accesses (Count)
system.cpu.dcache.tags.dataAccesses            164301                       # Number of data accesses (Count)
system.cpu.dcache.tags.power_state.pwrStateResidencyTicks::UNDEFINED 423956591500                       # Cumulative time (in ticks) in various power states (Tick)
system.cpu.decode.idleCycles                    92001                       # Number of cycles decode is idle (Cycle)
system.cpu.decode.blockedCycles                164385                       # Number of cycles decode is blocked (Cycle)
system.cpu.decode.runCycles                     88734                       # Number of cycles decode is running (Cycle)
system.cpu.decode.unblockCycles                 11991                       # Number of cycles decode is unblocking (Cycle)
system.cpu.decode.squashCycles                   5596                       # Number of cycles decode is squashing (Cycle)
system.cpu.decode.branchResolved                30215                       # Number of times decode resolved a branch (Count)
system.cpu.decode.branchMispred                   662                       # Number of times decode detected a branch misprediction (Count)
system.cpu.decode.decodedInsts                 659767                       # Number of instructions handled by decode (Count)
system.cpu.decode.squashedInsts                  3119                       # Number of squashed instructions handled by decode (Count)
system.cpu.dtb_walker_cache.blockedCycles::no_mshrs            0                       # number of cycles access was blocked (Cycle)
system.cpu.dtb_walker_cache.blockedCycles::no_targets            0                       # number of cycles access was blocked (Cycle)
system.cpu.dtb_walker_cache.blockedCauses::no_mshrs            0                       # number of times access was blocked (Count)
system.cpu.dtb_walker_cache.blockedCauses::no_targets            0                       # number of times access was blocked (Count)
system.cpu.dtb_walker_cache.avgBlocked::no_mshrs          nan                       # average number of cycles each access was blocked ((Cycle/Count))
system.cpu.dtb_walker_cache.avgBlocked::no_targets          nan                       # average number of cycles each access was blocked ((Cycle/Count))
system.cpu.dtb_walker_cache.replacements            0                       # number of replacements (Count)
system.cpu.dtb_walker_cache.power_state.pwrStateResidencyTicks::UNDEFINED 423956591500                       # Cumulative time (in ticks) in various power states (Tick)
system.cpu.dtb_walker_cache.tags.tagsInUse            0                       # Average ticks per tags in use ((Tick/Count))
system.cpu.dtb_walker_cache.tags.totalRefs            0                       # Total number of references to valid blocks. (Count)
system.cpu.dtb_walker_cache.tags.sampledRefs            0                       # Sample count of references to valid blocks. (Count)
system.cpu.dtb_walker_cache.tags.avgRefs          nan                       # Average number of references to valid blocks. ((Count/Count))
system.cpu.dtb_walker_cache.tags.warmupTick            0                       # The tick when the warmup percentage was hit. (Tick)
system.cpu.dtb_walker_cache.tags.tagAccesses            0                       # Number of tag accesses (Count)
system.cpu.dtb_walker_cache.tags.dataAccesses            0                       # Number of data accesses (Count)
system.cpu.dtb_walker_cache.tags.power_state.pwrStateResidencyTicks::UNDEFINED 423956591500                       # Cumulative time (in ticks) in various power states (Tick)
system.cpu.fetch.icacheStallCycles             102962                       # Number of cycles fetch is stalled on an Icache miss (Cycle)
system.cpu.fetch.insts                         382855                       # Number of instructions fetch has processed (Count)
system.cpu.fetch.branches                       87831                       # Number of branches that fetch encountered (Count)
system.cpu.fetch.predictedBranches              35407                       # Number of branches that fetch has predicted taken (Count)
system.cpu.fetch.cycles                        251235                       # Number of cycles fetch has run and was not squashing or blocked (Cycle)
system.cpu.fetch.squashCycles                   12488                       # Number of cycles fetch has spent squashing (Cycle)
system.cpu.fetch.miscStallCycles                  282                       # Number of cycles fetch has spent waiting on interrupts, or bad addresses, or out of MSHRs (Cycle)
system.cpu.fetch.pendingTrapStallCycles          1959                       # Number of stall cycles due to pending traps (Cycle)
system.cpu.fetch.pendingQuiesceStallCycles           10                       # Number of stall cycles due to pending quiesce instructions (Cycle)
system.cpu.fetch.icacheWaitRetryStallCycles           15                       # Number of stall cycles due to full MSHR (Cycle)
system.cpu.fetch.cacheLines                     51342                       # Number of cache lines fetched (Count)
system.cpu.fetch.icacheSquashes                  2459                       # Number of outstanding Icache misses that were squashed (Count)
system.cpu.fetch.nisnDist::samples             362707                       # Number of instructions fetched each cycle (Total) (Count)
system.cpu.fetch.nisnDist::mean              1.971379                       # Number of instructions fetched each cycle (Total) (Count)
system.cpu.fetch.nisnDist::stdev             3.199064                       # Number of instructions fetched each cycle (Total) (Count)
system.cpu.fetch.nisnDist::underflows               0      0.00%      0.00% # Number of instructions fetched each cycle (Total) (Count)
system.cpu.fetch.nisnDist::0                   243606     67.16%     67.16% # Number of instructions fetched each cycle (Total) (Count)
system.cpu.fetch.nisnDist::1                    10181      2.81%     69.97% # Number of instructions fetched each cycle (Total) (Count)
system.cpu.fetch.nisnDist::2                    15196      4.19%     74.16% # Number of instructions fetched each cycle (Total) (Count)
system.cpu.fetch.nisnDist::3                     3692      1.02%     75.18% # Number of instructions fetched each cycle (Total) (Count)
system.cpu.fetch.nisnDist::4                     5296      1.46%     76.64% # Number of instructions fetched each cycle (Total) (Count)
system.cpu.fetch.nisnDist::5                     5394      1.49%     78.13% # Number of instructions fetched each cycle (Total) (Count)
system.cpu.fetch.nisnDist::6                     6231      1.72%     79.84% # Number of instructions fetched each cycle (Total) (Count)
system.cpu.fetch.nisnDist::7                     7044      1.94%     81.79% # Number of instructions fetched each cycle (Total) (Count)
system.cpu.fetch.nisnDist::8                    66067     18.21%    100.00% # Number of instructions fetched each cycle (Total) (Count)
system.cpu.fetch.nisnDist::overflows                0      0.00%    100.00% # Number of instructions fetched each cycle (Total) (Count)
system.cpu.fetch.nisnDist::min_value                0                       # Number of instructions fetched each cycle (Total) (Count)
system.cpu.fetch.nisnDist::max_value                8                       # Number of instructions fetched each cycle (Total) (Count)
system.cpu.fetch.nisnDist::total               362707                       # Number of instructions fetched each cycle (Total) (Count)
system.cpu.fetch.branchRate                  0.192148                       # Number of branch fetches per cycle (Ratio)
system.cpu.fetch.rate                        0.837574                       # Number of inst fetches per cycle ((Count/Cycle))
system.cpu.icache.demandHits::cpu.inst          49048                       # number of demand (read+write) hits (Count)
system.cpu.icache.demandHits::total             49048                       # number of demand (read+write) hits (Count)
system.cpu.icache.overallHits::cpu.inst         49048                       # number of overall hits (Count)
system.cpu.icache.overallHits::total            49048                       # number of overall hits (Count)
system.cpu.icache.demandMisses::cpu.inst         2294                       # number of demand (read+write) misses (Count)
system.cpu.icache.demandMisses::total            2294                       # number of demand (read+write) misses (Count)
system.cpu.icache.overallMisses::cpu.inst         2294                       # number of overall misses (Count)
system.cpu.icache.overallMisses::total           2294                       # number of overall misses (Count)
system.cpu.icache.demandMissLatency::cpu.inst    123921999                       # number of demand (read+write) miss ticks (Tick)
system.cpu.icache.demandMissLatency::total    123921999                       # number of demand (read+write) miss ticks (Tick)
system.cpu.icache.overallMissLatency::cpu.inst    123921999                       # number of overall miss ticks (Tick)
system.cpu.icache.overallMissLatency::total    123921999                       # number of overall miss ticks (Tick)
system.cpu.icache.demandAccesses::cpu.inst        51342                       # number of demand (read+write) accesses (Count)
system.cpu.icache.demandAccesses::total         51342                       # number of demand (read+write) accesses (Count)
system.cpu.icache.overallAccesses::cpu.inst        51342                       # number of overall (read+write) accesses (Count)
system.cpu.icache.overallAccesses::total        51342                       # number of overall (read+write) accesses (Count)
system.cpu.icache.demandMissRate::cpu.inst     0.044681                       # miss rate for demand accesses (Ratio)
system.cpu.icache.demandMissRate::total      0.044681                       # miss rate for demand accesses (Ratio)
system.cpu.icache.overallMissRate::cpu.inst     0.044681                       # miss rate for overall accesses (Ratio)
system.cpu.icache.overallMissRate::total     0.044681                       # miss rate for overall accesses (Ratio)
system.cpu.icache.demandAvgMissLatency::cpu.inst 54020.051874                       # average overall miss latency ((Cycle/Count))
system.cpu.icache.demandAvgMissLatency::total 54020.051874                       # average overall miss latency ((Cycle/Count))
system.cpu.icache.overallAvgMissLatency::cpu.inst 54020.051874                       # average overall miss latency ((Cycle/Count))
system.cpu.icache.overallAvgMissLatency::total 54020.051874                       # average overall miss latency ((Cycle/Count))
system.cpu.icache.blockedCycles::no_mshrs          513                       # number of cycles access was blocked (Cycle)
system.cpu.icache.blockedCycles::no_targets            0                       # number of cycles access was blocked (Cycle)
system.cpu.icache.blockedCauses::no_mshrs            8                       # number of times access was blocked (Count)
system.cpu.icache.blockedCauses::no_targets            0                       # number of times access was blocked (Count)
system.cpu.icache.avgBlocked::no_mshrs      64.125000                       # average number of cycles each access was blocked ((Cycle/Count))
system.cpu.icache.avgBlocked::no_targets          nan                       # average number of cycles each access was blocked ((Cycle/Count))
system.cpu.icache.writebacks::writebacks         1328                       # number of writebacks (Count)
system.cpu.icache.writebacks::total              1328                       # number of writebacks (Count)
system.cpu.icache.demandMshrHits::cpu.inst          457                       # number of demand (read+write) MSHR hits (Count)
system.cpu.icache.demandMshrHits::total           457                       # number of demand (read+write) MSHR hits (Count)
system.cpu.icache.overallMshrHits::cpu.inst          457                       # number of overall MSHR hits (Count)
system.cpu.icache.overallMshrHits::total          457                       # number of overall MSHR hits (Count)
system.cpu.icache.demandMshrMisses::cpu.inst         1837                       # number of demand (read+write) MSHR misses (Count)
system.cpu.icache.demandMshrMisses::total         1837                       # number of demand (read+write) MSHR misses (Count)
system.cpu.icache.overallMshrMisses::cpu.inst         1837                       # number of overall MSHR misses (Count)
system.cpu.icache.overallMshrMisses::total         1837                       # number of overall MSHR misses (Count)
system.cpu.icache.demandMshrMissLatency::cpu.inst    101722999                       # number of demand (read+write) MSHR miss ticks (Tick)
system.cpu.icache.demandMshrMissLatency::total    101722999                       # number of demand (read+write) MSHR miss ticks (Tick)
system.cpu.icache.overallMshrMissLatency::cpu.inst    101722999                       # number of overall MSHR miss ticks (Tick)
system.cpu.icache.overallMshrMissLatency::total    101722999                       # number of overall MSHR miss ticks (Tick)
system.cpu.icache.demandMshrMissRate::cpu.inst     0.035780                       # mshr miss ratio for demand accesses (Ratio)
system.cpu.icache.demandMshrMissRate::total     0.035780                       # mshr miss ratio for demand accesses (Ratio)
system.cpu.icache.overallMshrMissRate::cpu.inst     0.035780                       # mshr miss ratio for overall accesses (Ratio)
system.cpu.icache.overallMshrMissRate::total     0.035780                       # mshr miss ratio for overall accesses (Ratio)
system.cpu.icache.demandAvgMshrMissLatency::cpu.inst 55374.523136                       # average overall mshr miss latency ((Cycle/Count))
system.cpu.icache.demandAvgMshrMissLatency::total 55374.523136                       # average overall mshr miss latency ((Cycle/Count))
system.cpu.icache.overallAvgMshrMissLatency::cpu.inst 55374.523136                       # average overall mshr miss latency ((Cycle/Count))
system.cpu.icache.overallAvgMshrMissLatency::total 55374.523136                       # average overall mshr miss latency ((Cycle/Count))
system.cpu.icache.replacements                   1328                       # number of replacements (Count)
system.cpu.icache.ReadReq.hits::cpu.inst        49048                       # number of ReadReq hits (Count)
system.cpu.icache.ReadReq.hits::total           49048                       # number of ReadReq hits (Count)
system.cpu.icache.ReadReq.misses::cpu.inst         2294                       # number of ReadReq misses (Count)
system.cpu.icache.ReadReq.misses::total          2294                       # number of ReadReq misses (Count)
system.cpu.icache.ReadReq.missLatency::cpu.inst    123921999                       # number of ReadReq miss ticks (Tick)
system.cpu.icache.ReadReq.missLatency::total    123921999                       # number of ReadReq miss ticks (Tick)
system.cpu.icache.ReadReq.accesses::cpu.inst        51342                       # number of ReadReq accesses(hits+misses) (Count)
system.cpu.icache.ReadReq.accesses::total        51342                       # number of ReadReq accesses(hits+misses) (Count)
system.cpu.icache.ReadReq.missRate::cpu.inst     0.044681                       # miss rate for ReadReq accesses (Ratio)
system.cpu.icache.ReadReq.missRate::total     0.044681                       # miss rate for ReadReq accesses (Ratio)
system.cpu.icache.ReadReq.avgMissLatency::cpu.inst 54020.051874                       # average ReadReq miss latency ((Tick/Count))
system.cpu.icache.ReadReq.avgMissLatency::total 54020.051874                       # average ReadReq miss latency ((Tick/Count))
system.cpu.icache.ReadReq.mshrHits::cpu.inst          457                       # number of ReadReq MSHR hits (Count)
system.cpu.icache.ReadReq.mshrHits::total          457                       # number of ReadReq MSHR hits (Count)
system.cpu.icache.ReadReq.mshrMisses::cpu.inst         1837                       # number of ReadReq MSHR misses (Count)
system.cpu.icache.ReadReq.mshrMisses::total         1837                       # number of ReadReq MSHR misses (Count)
system.cpu.icache.ReadReq.mshrMissLatency::cpu.inst    101722999                       # number of ReadReq MSHR miss ticks (Tick)
system.cpu.icache.ReadReq.mshrMissLatency::total    101722999                       # number of ReadReq MSHR miss ticks (Tick)
system.cpu.icache.ReadReq.mshrMissRate::cpu.inst     0.035780                       # mshr miss rate for ReadReq accesses (Ratio)
system.cpu.icache.ReadReq.mshrMissRate::total     0.035780                       # mshr miss rate for ReadReq accesses (Ratio)
system.cpu.icache.ReadReq.avgMshrMissLatency::cpu.inst 55374.523136                       # average ReadReq mshr miss latency ((Tick/Count))
system.cpu.icache.ReadReq.avgMshrMissLatency::total 55374.523136                       # average ReadReq mshr miss latency ((Tick/Count))
system.cpu.icache.power_state.pwrStateResidencyTicks::UNDEFINED 423956591500                       # Cumulative time (in ticks) in various power states (Tick)
system.cpu.icache.tags.tagsInUse           506.290460                       # Average ticks per tags in use ((Tick/Count))
system.cpu.icache.tags.totalRefs                50884                       # Total number of references to valid blocks. (Count)
system.cpu.icache.tags.sampledRefs               1836                       # Sample count of references to valid blocks. (Count)
system.cpu.icache.tags.avgRefs              27.714597                       # Average number of references to valid blocks. ((Count/Count))
system.cpu.icache.tags.warmupTick               77000                       # The tick when the warmup percentage was hit. (Tick)
system.cpu.icache.tags.occupancies::cpu.inst   506.290460                       # Average occupied blocks per tick, per requestor ((Count/Tick))
system.cpu.icache.tags.avgOccs::cpu.inst     0.988849                       # Average percentage of cache occupancy ((Ratio/Tick))
system.cpu.icache.tags.avgOccs::total        0.988849                       # Average percentage of cache occupancy ((Ratio/Tick))
system.cpu.icache.tags.occupanciesTaskId::1024          507                       # Occupied blocks per task id (Count)
system.cpu.icache.tags.ageTaskId_1024::0           34                       # Occupied blocks per task id, per block age (Count)
system.cpu.icache.tags.ageTaskId_1024::4          473                       # Occupied blocks per task id, per block age (Count)
system.cpu.icache.tags.ratioOccsTaskId::1024     0.990234                       # Ratio of occupied blocks and all blocks, per task id (Ratio)
system.cpu.icache.tags.tagAccesses             104520                       # Number of tag accesses (Count)
system.cpu.icache.tags.dataAccesses            104520                       # Number of data accesses (Count)
system.cpu.icache.tags.power_state.pwrStateResidencyTicks::UNDEFINED 423956591500                       # Cumulative time (in ticks) in various power states (Tick)
system.cpu.iew.idleCycles                           0                       # Number of cycles IEW is idle (Cycle)
system.cpu.iew.squashCycles                      5596                       # Number of cycles IEW is squashing (Cycle)
system.cpu.iew.blockCycles                      81671                       # Number of cycles IEW is blocking (Cycle)
system.cpu.iew.unblockCycles                     3964                       # Number of cycles IEW is unblocking (Cycle)
system.cpu.iew.dispatchedInsts                 600581                       # Number of instructions dispatched to IQ (Count)
system.cpu.iew.dispSquashedInsts                  405                       # Number of squashed instructions skipped by dispatch (Count)
system.cpu.iew.dispLoadInsts                    73235                       # Number of dispatched load instructions (Count)
system.cpu.iew.dispStoreInsts                   23924                       # Number of dispatched store instructions (Count)
system.cpu.iew.dispNonSpecInsts                    48                       # Number of dispatched non-speculative instructions (Count)
system.cpu.iew.iqFullEvents                       824                       # Number of times the IQ has become full, causing a stall (Count)
system.cpu.iew.lsqFullEvents                     2781                       # Number of times the LSQ has become full, causing a stall (Count)
system.cpu.iew.memOrderViolationEvents             93                       # Number of memory order violations (Count)
system.cpu.iew.predictedTakenIncorrect           2104                       # Number of branches that were predicted taken incorrectly (Count)
system.cpu.iew.predictedNotTakenIncorrect         4280                       # Number of branches that were predicted not taken incorrectly (Count)
system.cpu.iew.branchMispredicts                 6384                       # Number of branch mispredicts detected at execute (Count)
system.cpu.iew.instsToCommit                   519460                       # Cumulative count of insts sent to commit (Count)
system.cpu.iew.writebackCount                  517299                       # Cumulative count of insts written-back (Count)
system.cpu.iew.producerInst                    402801                       # Number of instructions producing a value (Count)
system.cpu.iew.consumerInst                    668191                       # Number of instructions consuming a value (Count)
system.cpu.iew.wbRate                        1.131698                       # Insts written-back per cycle ((Count/Cycle))
system.cpu.iew.wbFanout                      0.602823                       # Average fanout of values written-back ((Count/Count))
system.cpu.interrupts.clk_domain.clock           8000                       # Clock period in ticks (Tick)
system.cpu.itb_walker_cache.blockedCycles::no_mshrs            0                       # number of cycles access was blocked (Cycle)
system.cpu.itb_walker_cache.blockedCycles::no_targets            0                       # number of cycles access was blocked (Cycle)
system.cpu.itb_walker_cache.blockedCauses::no_mshrs            0                       # number of times access was blocked (Count)
system.cpu.itb_walker_cache.blockedCauses::no_targets            0                       # number of times access was blocked (Count)
system.cpu.itb_walker_cache.avgBlocked::no_mshrs          nan                       # average number of cycles each access was blocked ((Cycle/Count))
system.cpu.itb_walker_cache.avgBlocked::no_targets          nan                       # average number of cycles each access was blocked ((Cycle/Count))
system.cpu.itb_walker_cache.replacements            0                       # number of replacements (Count)
system.cpu.itb_walker_cache.power_state.pwrStateResidencyTicks::UNDEFINED 423956591500                       # Cumulative time (in ticks) in various power states (Tick)
system.cpu.itb_walker_cache.tags.tagsInUse            0                       # Average ticks per tags in use ((Tick/Count))
system.cpu.itb_walker_cache.tags.totalRefs            0                       # Total number of references to valid blocks. (Count)
system.cpu.itb_walker_cache.tags.sampledRefs            0                       # Sample count of references to valid blocks. (Count)
system.cpu.itb_walker_cache.tags.avgRefs          nan                       # Average number of references to valid blocks. ((Count/Count))
system.cpu.itb_walker_cache.tags.warmupTick            0                       # The tick when the warmup percentage was hit. (Tick)
system.cpu.itb_walker_cache.tags.tagAccesses            0                       # Number of tag accesses (Count)
system.cpu.itb_walker_cache.tags.dataAccesses            0                       # Number of data accesses (Count)
system.cpu.itb_walker_cache.tags.power_state.pwrStateResidencyTicks::UNDEFINED 423956591500                       # Cumulative time (in ticks) in various power states (Tick)
system.cpu.lsq0.forwLoads                        2974                       # Number of loads that had data forwarded from stores (Count)
system.cpu.lsq0.squashedLoads                   25192                       # Number of loads squashed (Count)
system.cpu.lsq0.ignoredResponses                   88                       # Number of memory responses ignored because the instruction is squashed (Count)
system.cpu.lsq0.memOrderViolation                  93                       # Number of memory ordering violations (Count)
system.cpu.lsq0.squashedStores                   5443                       # Number of stores squashed (Count)
system.cpu.lsq0.rescheduledLoads                   71                       # Number of loads that were rescheduled (Count)
system.cpu.lsq0.blockedByCache                    240                       # Number of times an access to memory failed due to the cache being blocked (Count)
system.cpu.lsq0.loadToUse::samples              48035                       # Distribution of cycle latency between the first time a load is issued and its completion (Unspecified)
system.cpu.lsq0.loadToUse::mean             21.419985                       # Distribution of cycle latency between the first time a load is issued and its completion (Unspecified)
system.cpu.lsq0.loadToUse::stdev            48.128766                       # Distribution of cycle latency between the first time a load is issued and its completion (Unspecified)
system.cpu.lsq0.loadToUse::0-9                  39351     81.92%     81.92% # Distribution of cycle latency between the first time a load is issued and its completion (Unspecified)
system.cpu.lsq0.loadToUse::10-19                  354      0.74%     82.66% # Distribution of cycle latency between the first time a load is issued and its completion (Unspecified)
system.cpu.lsq0.loadToUse::20-29                  326      0.68%     83.34% # Distribution of cycle latency between the first time a load is issued and its completion (Unspecified)
system.cpu.lsq0.loadToUse::30-39                  214      0.45%     83.78% # Distribution of cycle latency between the first time a load is issued and its completion (Unspecified)
system.cpu.lsq0.loadToUse::40-49                  298      0.62%     84.40% # Distribution of cycle latency between the first time a load is issued and its completion (Unspecified)
system.cpu.lsq0.loadToUse::50-59                  181      0.38%     84.78% # Distribution of cycle latency between the first time a load is issued and its completion (Unspecified)
system.cpu.lsq0.loadToUse::60-69                  216      0.45%     85.23% # Distribution of cycle latency between the first time a load is issued and its completion (Unspecified)
system.cpu.lsq0.loadToUse::70-79                  445      0.93%     86.16% # Distribution of cycle latency between the first time a load is issued and its completion (Unspecified)
system.cpu.lsq0.loadToUse::80-89                  546      1.14%     87.29% # Distribution of cycle latency between the first time a load is issued and its completion (Unspecified)
[...]
system.mem_ctrls.dram.bwTotal::writebacks        77895                       # Total bandwidth to/from this memory ((Byte/Second))
system.mem_ctrls.dram.bwTotal::cpu.inst        277009                       # Total bandwidth to/from this memory ((Byte/Second))
system.mem_ctrls.dram.bwTotal::cpu.data        433403                       # Total bandwidth to/from this memory ((Byte/Second))
system.mem_ctrls.dram.bwTotal::total           788307                       # Total bandwidth to/from this memory ((Byte/Second))
system.mem_ctrls.dram.readBursts                 4307                       # Number of DRAM read bursts (Count)
system.mem_ctrls.dram.writeBursts                1622                       # Number of DRAM write bursts (Count)
system.mem_ctrls.dram.perBankRdBursts::0          340                       # Per bank write bursts (Count)
system.mem_ctrls.dram.perBankRdBursts::1          355                       # Per bank write bursts (Count)
system.mem_ctrls.dram.perBankRdBursts::2          366                       # Per bank write bursts (Count)
system.mem_ctrls.dram.perBankRdBursts::3          247                       # Per bank write bursts (Count)
system.mem_ctrls.dram.perBankRdBursts::4          288                       # Per bank write bursts (Count)
system.mem_ctrls.dram.perBankRdBursts::5          220                       # Per bank write bursts (Count)
system.mem_ctrls.dram.perBankRdBursts::6          280                       # Per bank write bursts (Count)
system.mem_ctrls.dram.perBankRdBursts::7          160                       # Per bank write bursts (Count)
system.mem_ctrls.dram.perBankRdBursts::8          229                       # Per bank write bursts (Count)
system.mem_ctrls.dram.perBankRdBursts::9          354                       # Per bank write bursts (Count)
system.mem_ctrls.dram.perBankRdBursts::10          338                       # Per bank write bursts (Count)
system.mem_ctrls.dram.perBankRdBursts::11          261                       # Per bank write bursts (Count)
system.mem_ctrls.dram.perBankRdBursts::12          188                       # Per bank write bursts (Count)
system.mem_ctrls.dram.perBankRdBursts::13          190                       # Per bank write bursts (Count)
system.mem_ctrls.dram.perBankRdBursts::14          246                       # Per bank write bursts (Count)
system.mem_ctrls.dram.perBankRdBursts::15          245                       # Per bank write bursts (Count)
system.mem_ctrls.dram.perBankWrBursts::0           91                       # Per bank write bursts (Count)
system.mem_ctrls.dram.perBankWrBursts::1          146                       # Per bank write bursts (Count)
system.mem_ctrls.dram.perBankWrBursts::2          148                       # Per bank write bursts (Count)
system.mem_ctrls.dram.perBankWrBursts::3          134                       # Per bank write bursts (Count)
system.mem_ctrls.dram.perBankWrBursts::4          144                       # Per bank write bursts (Count)
system.mem_ctrls.dram.perBankWrBursts::5          140                       # Per bank write bursts (Count)
system.mem_ctrls.dram.perBankWrBursts::6          123                       # Per bank write bursts (Count)
system.mem_ctrls.dram.perBankWrBursts::7           44                       # Per bank write bursts (Count)
system.mem_ctrls.dram.perBankWrBursts::8           72                       # Per bank write bursts (Count)
system.mem_ctrls.dram.perBankWrBursts::9          132                       # Per bank write bursts (Count)
system.mem_ctrls.dram.perBankWrBursts::10          141                       # Per bank write bursts (Count)
system.mem_ctrls.dram.perBankWrBursts::11           73                       # Per bank write bursts (Count)
system.mem_ctrls.dram.perBankWrBursts::12           59                       # Per bank write bursts (Count)
system.mem_ctrls.dram.perBankWrBursts::13            1                       # Per bank write bursts (Count)
system.mem_ctrls.dram.perBankWrBursts::14           54                       # Per bank write bursts (Count)
system.mem_ctrls.dram.perBankWrBursts::15          120                       # Per bank write bursts (Count)
system.mem_ctrls.dram.totQLat                46810500                       # Total ticks spent queuing (Tick)
system.mem_ctrls.dram.totBusLat              21535000                       # Total ticks spent in databus transfers (Tick)
system.mem_ctrls.dram.totMemAccLat          127566750                       # Total ticks spent from burst creation until serviced by the DRAM (Tick)
system.mem_ctrls.dram.avgQLat                10868.47                       # Average queueing delay per DRAM burst ((Tick/Count))
system.mem_ctrls.dram.avgBusLat               5000.00                       # Average bus latency per DRAM burst ((Tick/Count))
system.mem_ctrls.dram.avgMemAccLat           29618.47                       # Average memory access latency per DRAM burst ((Tick/Count))
system.mem_ctrls.dram.readRowHits                3589                       # Number of row buffer hits during reads (Count)
system.mem_ctrls.dram.writeRowHits               1237                       # Number of row buffer hits during writes (Count)
system.mem_ctrls.dram.readRowHitRate            83.33                       # Row buffer hit rate for reads (Ratio)
system.mem_ctrls.dram.writeRowHitRate           76.26                       # Row buffer hit rate for writes (Ratio)
system.mem_ctrls.dram.bytesPerActivate::samples         1100                       # Bytes accessed per row activation (Byte)
system.mem_ctrls.dram.bytesPerActivate::mean   344.727273                       # Bytes accessed per row activation (Byte)
system.mem_ctrls.dram.bytesPerActivate::gmean   218.511843                       # Bytes accessed per row activation (Byte)
system.mem_ctrls.dram.bytesPerActivate::stdev   326.581536                       # Bytes accessed per row activation (Byte)
system.mem_ctrls.dram.bytesPerActivate::0-127          286     26.00%     26.00% # Bytes accessed per row activation (Byte)
system.mem_ctrls.dram.bytesPerActivate::128-255          291     26.45%     52.45% # Bytes accessed per row activation (Byte)
system.mem_ctrls.dram.bytesPerActivate::256-383          165     15.00%     67.45% # Bytes accessed per row activation (Byte)
system.mem_ctrls.dram.bytesPerActivate::384-511           79      7.18%     74.64% # Bytes accessed per row activation (Byte)
system.mem_ctrls.dram.bytesPerActivate::512-639           49      4.45%     79.09% # Bytes accessed per row activation (Byte)
system.mem_ctrls.dram.bytesPerActivate::640-767           48      4.36%     83.45% # Bytes accessed per row activation (Byte)
system.mem_ctrls.dram.bytesPerActivate::768-895           26      2.36%     85.82% # Bytes accessed per row activation (Byte)
system.mem_ctrls.dram.bytesPerActivate::896-1023           19      1.73%     87.55% # Bytes accessed per row activation (Byte)
system.mem_ctrls.dram.bytesPerActivate::1024-1151          137     12.45%    100.00% # Bytes accessed per row activation (Byte)
system.mem_ctrls.dram.bytesPerActivate::total         1100                       # Bytes accessed per row activation (Byte)
system.mem_ctrls.dram.bytesRead                275648                       # Total bytes read (Byte)
system.mem_ctrls.dram.bytesWritten             103808                       # Total bytes written (Byte)
system.mem_ctrls.dram.avgRdBW                0.650180                       # Average DRAM read bandwidth in MiBytes/s ((Byte/Second))
system.mem_ctrls.dram.avgWrBW                0.244855                       # Average DRAM write bandwidth in MiBytes/s ((Byte/Second))
system.mem_ctrls.dram.peakBW                 12800.00                       # Theoretical peak bandwidth in MiByte/s ((Byte/Second))
system.mem_ctrls.dram.busUtil                    0.01                       # Data bus utilization in percentage (Ratio)
system.mem_ctrls.dram.busUtilRead                0.01                       # Data bus utilization in percentage for reads (Ratio)
system.mem_ctrls.dram.busUtilWrite               0.00                       # Data bus utilization in percentage for writes (Ratio)
system.mem_ctrls.dram.pageHitRate               81.40                       # Row buffer hit rate, read and write combined (Ratio)
system.mem_ctrls.dram.power_state.pwrStateResidencyTicks::UNDEFINED 423956591500                       # Cumulative time (in ticks) in various power states (Tick)
system.mem_ctrls.dram.rank0.actEnergy         4205460                       # Energy for activate commands per rank (pJ) (Joule)
system.mem_ctrls.dram.rank0.preEnergy         2231460                       # Energy for precharge commands per rank (pJ) (Joule)
system.mem_ctrls.dram.rank0.readEnergy       16107840                       # Energy for read commands per rank (pJ) (Joule)
system.mem_ctrls.dram.rank0.writeEnergy       5063400                       # Energy for write commands per rank (pJ) (Joule)
system.mem_ctrls.dram.rank0.refreshEnergy 33466533360.000004                       # Energy for refresh commands per rank (pJ) (Joule)
system.mem_ctrls.dram.rank0.actBackEnergy   6236546700                       # Energy for active background per rank (pJ) (Joule)
system.mem_ctrls.dram.rank0.preBackEnergy 157547502720                       # Energy for precharge background per rank (pJ) (Joule)
system.mem_ctrls.dram.rank0.actPowerDownEnergy            0                       # Energy for active power-down per rank (pJ) (Joule)
system.mem_ctrls.dram.rank0.prePowerDownEnergy            0                       # Energy for precharge power-down per rank (pJ) (Joule)
system.mem_ctrls.dram.rank0.selfRefreshEnergy            0                       # Energy for self refresh per rank (pJ) (Joule)
system.mem_ctrls.dram.rank0.totalEnergy  197278190940                       # Total energy per rank (pJ) (Joule)
system.mem_ctrls.dram.rank0.averagePower   465.326392                       # Core power per rank (mW) (Watt)
system.mem_ctrls.dram.rank0.totalIdleTime            0                       # Total Idle time Per DRAM Rank (Tick)
system.mem_ctrls.dram.rank0.pwrStateTime::IDLE 409530374500                       # Time in different power states (Tick)
system.mem_ctrls.dram.rank0.pwrStateTime::REF  14156740000                       # Time in different power states (Tick)
system.mem_ctrls.dram.rank0.pwrStateTime::SREF            0                       # Time in different power states (Tick)
system.mem_ctrls.dram.rank0.pwrStateTime::PRE_PDN            0                       # Time in different power states (Tick)
system.mem_ctrls.dram.rank0.pwrStateTime::ACT    269477000                       # Time in different power states (Tick)
system.mem_ctrls.dram.rank0.pwrStateTime::ACT_PDN            0                       # Time in different power states (Tick)
system.mem_ctrls.dram.rank1.actEnergy         3669960                       # Energy for activate commands per rank (pJ) (Joule)
system.mem_ctrls.dram.rank1.preEnergy         1943040                       # Energy for precharge commands per rank (pJ) (Joule)
system.mem_ctrls.dram.rank1.readEnergy       14644140                       # Energy for read commands per rank (pJ) (Joule)
system.mem_ctrls.dram.rank1.writeEnergy       3403440                       # Energy for write commands per rank (pJ) (Joule)
system.mem_ctrls.dram.rank1.refreshEnergy 33466533360.000004                       # Energy for refresh commands per rank (pJ) (Joule)
system.mem_ctrls.dram.rank1.actBackEnergy   6219194190                       # Energy for active background per rank (pJ) (Joule)
system.mem_ctrls.dram.rank1.preBackEnergy 157562115360                       # Energy for precharge background per rank (pJ) (Joule)
system.mem_ctrls.dram.rank1.actPowerDownEnergy            0                       # Energy for active power-down per rank (pJ) (Joule)
system.mem_ctrls.dram.rank1.prePowerDownEnergy            0                       # Energy for precharge power-down per rank (pJ) (Joule)
system.mem_ctrls.dram.rank1.selfRefreshEnergy            0                       # Energy for self refresh per rank (pJ) (Joule)
system.mem_ctrls.dram.rank1.totalEnergy  197271503490                       # Total energy per rank (pJ) (Joule)
system.mem_ctrls.dram.rank1.averagePower   465.310618                       # Core power per rank (mW) (Watt)
system.mem_ctrls.dram.rank1.totalIdleTime            0                       # Total Idle time Per DRAM Rank (Tick)
system.mem_ctrls.dram.rank1.pwrStateTime::IDLE 409568541000                       # Time in different power states (Tick)
system.mem_ctrls.dram.rank1.pwrStateTime::REF  14156740000                       # Time in different power states (Tick)
system.mem_ctrls.dram.rank1.pwrStateTime::SREF            0                       # Time in different power states (Tick)
system.mem_ctrls.dram.rank1.pwrStateTime::PRE_PDN            0                       # Time in different power states (Tick)
system.mem_ctrls.dram.rank1.pwrStateTime::ACT    231310500                       # Time in different power states (Tick)
system.mem_ctrls.dram.rank1.pwrStateTime::ACT_PDN            0                       # Time in different power states (Tick)
system.mem_ctrls.power_state.pwrStateResidencyTicks::UNDEFINED 423956591500                       # Cumulative time (in ticks) in various power states (Tick)
system.membus.transDist::ReadResp                4126                       # Transaction distribution (Count)
system.membus.transDist::WritebackDirty           516                       # Transaction distribution (Count)
system.membus.transDist::WritebackClean          1328                       # Transaction distribution (Count)
system.membus.transDist::CleanEvict              1331                       # Transaction distribution (Count)
system.membus.transDist::UpgradeReq                 1                       # Transaction distribution (Count)
system.membus.transDist::ReadExReq                581                       # Transaction distribution (Count)
system.membus.transDist::ReadExResp               581                       # Transaction distribution (Count)
system.membus.transDist::ReadCleanReq            1837                       # Transaction distribution (Count)
system.membus.transDist::ReadSharedReq           2290                       # Transaction distribution (Count)
system.membus.pktCount_system.cpu.icache.mem_side_port::system.mem_ctrls.port         5000                       # Packet count per connected requestor and responder (Count)
system.membus.pktCount_system.cpu.icache.mem_side_port::total         5000                       # Packet count per connected requestor and responder (Count)
system.membus.pktCount_system.cpu.dcache.mem_side_port::system.mem_ctrls.port         7590                       # Packet count per connected requestor and responder (Count)
system.membus.pktCount_system.cpu.dcache.mem_side_port::total         7590                       # Packet count per connected requestor and responder (Count)
system.membus.pktCount::total                   12590                       # Packet count per connected requestor and responder (Count)
system.membus.pktSize_system.cpu.icache.mem_side_port::system.mem_ctrls.port       202432                       # Cumulative packet size per connected requestor and responder (Byte)
system.membus.pktSize_system.cpu.icache.mem_side_port::total       202432                       # Cumulative packet size per connected requestor and responder (Byte)
system.membus.pktSize_system.cpu.dcache.mem_side_port::system.mem_ctrls.port       216768                       # Cumulative packet size per connected requestor and responder (Byte)
system.membus.pktSize_system.cpu.dcache.mem_side_port::total       216768                       # Cumulative packet size per connected requestor and responder (Byte)
system.membus.pktSize::total                   419200                       # Cumulative packet size per connected requestor and responder (Byte)
system.membus.snoops                                1                       # Total snoops (Count)
system.membus.snoopTraffic                         64                       # Total snoop traffic (Byte)
system.membus.snoopFanout::samples               4709                       # Request fanout histogram (Count)
system.membus.snoopFanout::mean              0.001062                       # Request fanout histogram (Count)
system.membus.snoopFanout::stdev             0.032571                       # Request fanout histogram (Count)
system.membus.snoopFanout::underflows               0      0.00%      0.00% # Request fanout histogram (Count)
system.membus.snoopFanout::0                     4704     99.89%     99.89% # Request fanout histogram (Count)
system.membus.snoopFanout::1                        5      0.11%    100.00% # Request fanout histogram (Count)
system.membus.snoopFanout::2                        0      0.00%    100.00% # Request fanout histogram (Count)
system.membus.snoopFanout::3                        0      0.00%    100.00% # Request fanout histogram (Count)
system.membus.snoopFanout::4                        0      0.00%    100.00% # Request fanout histogram (Count)
system.membus.snoopFanout::overflows                0      0.00%    100.00% # Request fanout histogram (Count)
system.membus.snoopFanout::min_value                0                       # Request fanout histogram (Count)
system.membus.snoopFanout::max_value                1                       # Request fanout histogram (Count)
system.membus.snoopFanout::total                 4709                       # Request fanout histogram (Count)
system.membus.power_state.pwrStateResidencyTicks::UNDEFINED 423956591500                       # Cumulative time (in ticks) in various power states (Tick)
system.membus.reqLayer2.occupancy            16108500                       # Layer occupancy (ticks) (Tick)
system.membus.reqLayer2.utilization               0.0                       # Layer utilization (Ratio)
system.membus.respLayer1.occupancy            9626750                       # Layer occupancy (ticks) (Tick)
system.membus.respLayer1.utilization              0.0                       # Layer utilization (Ratio)
system.membus.respLayer2.occupancy           15191500                       # Layer occupancy (ticks) (Tick)
system.membus.respLayer2.utilization              0.0                       # Layer utilization (Ratio)
system.membus.snoop_filter.totRequests           7884                       # Total number of requests made to the snoop filter. (Count)
system.membus.snoop_filter.hitSingleRequests         3177                       # Number of requests hitting in the snoop filter with a single holder of the requested data. (Count)
system.membus.snoop_filter.hitMultiRequests            3                       # Number of requests hitting in the snoop filter with multiple (>1) holders of the requested data. (Count)
system.membus.snoop_filter.totSnoops                0                       # Total number of snoops made to the snoop filter. (Count)
system.membus.snoop_filter.hitSingleSnoops            0                       # Number of snoops hitting in the snoop filter with a single holder of the requested data. (Count)
system.membus.snoop_filter.hitMultiSnoops            0                       # Number of snoops hitting in the snoop filter with multiple (>1) holders of the requested data. (Count)
system.voltage_domain.voltage                       1                       # Voltage in Volts (Volt)
system.workload.inst.arm                            0                       # number of arm instructions executed (Count)
system.workload.inst.quiesce                        0                       # number of quiesce instructions executed (Count)

---------- End Simulation Statistics   ----------
